version 2
run Default-0-20220510-17:00:06-261187
attr configname Default
attr datetime 20220510-17:00:06
attr experiment Default
attr inifile omnetpp.ini
attr iterationvars ""
attr iterationvarsf ""
attr measurement ""
attr network RSUExampleScenario
attr processid 261187
attr repetition 0
attr replication #0
attr resultdir results
attr runnumber 0
attr seedset 0
param *.playgroundSizeX 500m
param *.playgroundSizeY 200m
param *.playgroundSizeZ 50m
param *.annotations.draw true
param *.obstacles.obstacles "xmldoc(\"config.xml\", \"//AnalogueModel[@type='SimpleObstacleShadowing']/obstacles\")"
param *.manager.updateInterval 1s
param *.manager.host "\"localhost\""
param *.manager.port 9999
param *.manager.autoShutdown true
param *.manager.launchConfig "xmldoc(\"highway.launchd.xml\")"
param *.manager.moduleType "\"*=org.car2x.veins.nodes.Car\""
param *.manager.moduleName "\"*=node\""
param *.manager.trafficLightModuleType "\"org.car2x.veins.nodes.TrafficLight\""
param *.manager.trafficLightModuleName "\"rampMeter\""
param *.manager.trafficLightModuleDisplayString default
param *.manager.trafficLightFilter "\"rampMeter\""
param *.rampMeter[*].mobility.x 0
param *.rampMeter[*].mobility.y 0
param *.rampMeter[*].mobility.z 3
param *.rampMeter[*].applType "\"smarthighway.RampMeterControl.RampMeterController\""
param *.rampMeter[*].appl.headerLength "80 bit"
param *.rampMeter[*].appl.sendBeacons false
param *.rampMeter[*].appl.dataOnSch false
param *.rampMeter[*].appl.beaconInterval 1s
param *.rampMeter[*].appl.beaconUserPriority 7
param *.rampMeter[*].appl.dataUserPriority 5
param *.rampMeter[*].logicType "\"org.car2x.veins.modules.world.traci.trafficLight.logics.TraCITrafficLightSimpleLogic\""
param *.rampMeter[*].nic.phy80211p.antennaOffsetZ "0 m"
param *.rsu[0].mobility.x 150
param *.rsu[0].mobility.y 20
param *.rsu[0].mobility.z 3
param *.rsu[*].applType "\"RSUApp\""
param *.rsu[*].appl.headerLength "80 bit"
param *.rsu[*].appl.sendBeacons false
param *.rsu[*].appl.dataOnSch false
param *.rsu[*].appl.beaconInterval 1s
param *.rsu[*].appl.beaconUserPriority 7
param *.rsu[*].appl.dataUserPriority 5
param *.rsu[*].nic.phy80211p.antennaOffsetZ "0 m"
param *.connectionManager.sendDirect true
param *.connectionManager.maxInterfDist 2600m
param *.connectionManager.drawMaxIntfDist false
param *.**.nic.mac1609_4.useServiceChannel false
param *.**.nic.mac1609_4.txPower 20mW
param *.**.nic.mac1609_4.bitrate 6Mbps
param *.**.nic.phy80211p.minPowerLevel -110dBm
param *.**.nic.phy80211p.useNoiseFloor true
param *.**.nic.phy80211p.noiseFloor -98dBm
param *.**.nic.phy80211p.decider "xmldoc(\"config.xml\")"
param *.**.nic.phy80211p.analogueModels "xmldoc(\"config.xml\")"
param *.**.nic.phy80211p.usePropagationDelay true
param *.**.nic.phy80211p.antenna "xmldoc(\"antenna.xml\", \"/root/Antenna[@id='monopole']\")"
param *.*node[*].nic.phy80211p.antennaOffsetY "0 m"
param *.*node[*].nic.phy80211p.antennaOffsetZ "1.895 m"
param *.node[*].applType "\"CarApp\""
param *.bad_node[*].applType "\"BadCarApp\""
param *.*node[*].appl.headerLength "80 bit"
param *.*node[*].appl.sendBeacons false
param *.*node[*].appl.dataOnSch false
param *.*node[*].appl.beaconInterval 1s
param *.*node[*].veinsmobility.x 0
param *.*node[*].veinsmobility.y 0
param *.*node[*].veinsmobility.z 0
param *.*node[*].veinsmobility.setHostSpeed false
param *.*node[*0].veinsmobility.accidentCount 1
param *.*node[*0].veinsmobility.accidentStart 73s
param *.*node[*0].veinsmobility.accidentDuration 50s

vector 0 RSUExampleScenario.node[0].veinsmobility posx ETV
vector 1 RSUExampleScenario.node[0].veinsmobility posy ETV
vector 2 RSUExampleScenario.node[1].veinsmobility posx ETV
vector 3 RSUExampleScenario.node[1].veinsmobility posy ETV
vector 4 RSUExampleScenario.node[0].veinsmobility speed ETV
vector 5 RSUExampleScenario.node[1].veinsmobility speed ETV
vector 6 RSUExampleScenario.node[2].veinsmobility posx ETV
vector 7 RSUExampleScenario.node[2].veinsmobility posy ETV
vector 8 RSUExampleScenario.node[3].veinsmobility posx ETV
vector 9 RSUExampleScenario.node[3].veinsmobility posy ETV
vector 10 RSUExampleScenario.node[0].veinsmobility acceleration ETV
vector 11 RSUExampleScenario.node[0].veinsmobility co2emission ETV
vector 12 RSUExampleScenario.node[1].veinsmobility acceleration ETV
vector 13 RSUExampleScenario.node[1].veinsmobility co2emission ETV
vector 14 RSUExampleScenario.node[2].veinsmobility speed ETV
vector 15 RSUExampleScenario.node[3].veinsmobility speed ETV
vector 16 RSUExampleScenario.node[2].veinsmobility acceleration ETV
vector 17 RSUExampleScenario.node[2].veinsmobility co2emission ETV
vector 18 RSUExampleScenario.node[3].veinsmobility acceleration ETV
vector 19 RSUExampleScenario.node[3].veinsmobility co2emission ETV
vector 20 RSUExampleScenario.node[4].veinsmobility posx ETV
vector 21 RSUExampleScenario.node[4].veinsmobility posy ETV
vector 22 RSUExampleScenario.node[4].veinsmobility speed ETV
vector 23 RSUExampleScenario.node[5].veinsmobility posx ETV
vector 24 RSUExampleScenario.node[5].veinsmobility posy ETV
vector 25 RSUExampleScenario.node[4].veinsmobility acceleration ETV
vector 26 RSUExampleScenario.node[4].veinsmobility co2emission ETV
vector 27 RSUExampleScenario.node[5].veinsmobility speed ETV
vector 28 RSUExampleScenario.node[5].veinsmobility acceleration ETV
vector 29 RSUExampleScenario.node[5].veinsmobility co2emission ETV
vector 30 RSUExampleScenario.node[6].veinsmobility posx ETV
vector 31 RSUExampleScenario.node[6].veinsmobility posy ETV
vector 32 RSUExampleScenario.node[6].veinsmobility speed ETV
vector 33 RSUExampleScenario.node[6].veinsmobility acceleration ETV
vector 34 RSUExampleScenario.node[6].veinsmobility co2emission ETV
vector 35 RSUExampleScenario.node[7].veinsmobility posx ETV
vector 36 RSUExampleScenario.node[7].veinsmobility posy ETV
vector 37 RSUExampleScenario.node[7].veinsmobility speed ETV
vector 38 RSUExampleScenario.node[8].veinsmobility posx ETV
vector 39 RSUExampleScenario.node[8].veinsmobility posy ETV
vector 40 RSUExampleScenario.node[7].veinsmobility acceleration ETV
vector 41 RSUExampleScenario.node[7].veinsmobility co2emission ETV
vector 42 RSUExampleScenario.node[8].veinsmobility speed ETV
11	15	3	4.1022822932311
11	20	4	5.6032062020964
11	23	5	5.9342220063454
11	26	6	7.5517671816307
11	29	7	8.7556341557204
11	32	8	9.9009716730869
11	35	9	9.8099166831577
11	38	10	11.887790949767
11	41	11	13.287311597686
11	44	12	15.169251419825
11	47	13	15.278373011896
11	50	14	17.072396765148
11	54	15	18.705202283492
11	60	16	20.252738558155
11	66	17	21.969407905285
10	15	3	1.8558323060814
10	20	4	2.0820189485466
10	23	5	1.7903724908549
10	26	6	1.9978670965368
10	29	7	2.0115321909054
10	32	8	2.0001169357402
10	35	9	1.730716728759
10	38	10	1.9405986998906
10	41	11	1.9700355874794
10	44	12	2.0604187973379
10	47	13	1.8621751044109
10	50	14	1.9319245763146
10	54	15	1.9587544681831
10	60	16	1.9622775883554
10	66	17	1.9766604371671
4	9	2	4.1428915371655
4	15	3	5.9987238432469
4	20	4	8.0807427917935
4	23	5	9.8711152826484
4	26	6	11.868982379185
4	29	7	13.880514570091
4	32	8	15.880631505831
4	35	9	17.61134823459
4	38	10	19.55194693448
4	41	11	21.52198252196
4	44	12	23.582401319298
4	47	13	25.444576423709
4	50	14	27.376501000023
4	54	15	29.335255468206
4	60	16	31.297533056562
4	66	17	33.274193493729
1	4	1	29.8
1	9	2	29.8
1	15	3	29.8
1	20	4	29.8
1	23	5	29.8
1	26	6	29.8
1	29	7	29.8
1	32	8	29.8
1	35	9	29.8
1	38	10	29.8
1	41	11	29.8
1	44	12	29.8
1	47	13	29.8
1	50	14	29.8
1	54	15	29.8
1	60	16	29.8
1	66	17	29.8
0	4	1	31.174628598893
0	9	2	34.398052699922
0	15	3	39.560580475136
0	20	4	46.676898941623
0	23	5	55.77382297414
0	26	6	66.683219025482
0	29	7	79.641393966964
0	32	8	94.6052764493
0	35	9	111.41011321925
0	38	10	130.06362007381
0	41	11	150.66560702547
0	44	12	173.35809010482
0	47	13	197.95856841666
0	50	14	224.44000487824
0	54	15	252.87975706524
0	60	16	283.20133605116
0	66	17	315.62040621767
vector 43 RSUExampleScenario.node[9].veinsmobility posx ETV
vector 44 RSUExampleScenario.node[9].veinsmobility posy ETV
vector 45 RSUExampleScenario.node[8].veinsmobility acceleration ETV
vector 46 RSUExampleScenario.node[8].veinsmobility co2emission ETV
vector 47 RSUExampleScenario.node[10].veinsmobility posx ETV
vector 48 RSUExampleScenario.node[10].veinsmobility posy ETV
vector 49 RSUExampleScenario.node[9].veinsmobility speed ETV
vector 50 RSUExampleScenario.node[9].veinsmobility acceleration ETV
vector 51 RSUExampleScenario.node[9].veinsmobility co2emission ETV
vector 52 RSUExampleScenario.node[10].veinsmobility speed ETV
vector 53 RSUExampleScenario.node[11].veinsmobility posx ETV
vector 54 RSUExampleScenario.node[11].veinsmobility posy ETV
vector 55 RSUExampleScenario.node[12].veinsmobility posx ETV
vector 56 RSUExampleScenario.node[12].veinsmobility posy ETV
vector 57 RSUExampleScenario.node[10].veinsmobility acceleration ETV
vector 58 RSUExampleScenario.node[10].veinsmobility co2emission ETV
vector 59 RSUExampleScenario.node[11].veinsmobility speed ETV
vector 60 RSUExampleScenario.node[12].veinsmobility speed ETV
26	32	8	3.9770437142121
26	35	9	4.8600777614242
26	38	10	5.830304973414
26	41	11	7.5792256597172
26	44	12	8.2101797070296
26	47	13	9.7273283092031
26	50	14	11.540995202268
26	54	15	12.774468599916
26	60	16	13.543298473086
26	66	17	15.854984887547
26	71	18	15.484077995953
26	74	19	16.269724703385
26	77	20	18.587876712328
26	80	21	20.468057361502
26	83	22	20.696784915447
25	32	8	1.9100505300611
25	35	9	1.8621598812798
25	38	10	1.8650991253578
25	41	11	2.0980606627464
25	44	12	1.9354904606985
25	47	13	2.0311803473765
25	50	14	2.1485867599398
25	54	15	2.113583044936
25	60	16	2.0016568807024
25	66	17	2.1517473811447
25	71	18	1.8693462885707
25	74	19	1.7992561084381
25	77	20	1.9336245325185
25	80	21	1.9804323270824
25	83	22	1.8234078075993
22	29	7	3.6955023822781
22	32	8	5.6055529123392
22	35	9	7.467712793619
22	38	10	9.3328119189768
22	41	11	11.430872581723
22	44	12	13.366363042422
22	47	13	15.397543389798
22	50	14	17.546130149738
22	54	15	19.659713194674
22	60	16	21.661370075376
22	66	17	23.813117456521
22	71	18	25.682463745092
22	74	19	27.48171985353
22	77	20	29.415344386048
22	80	21	31.395776713131
22	83	22	33.21918452073
21	26	6	29.8
21	29	7	29.8
21	32	8	29.8
21	35	9	29.8
21	38	10	29.8
21	41	11	29.8
21	44	12	29.8
21	47	13	29.8
21	50	14	29.8
21	54	15	29.8
21	60	16	29.8
21	66	17	29.8
21	71	18	29.8
21	74	19	29.8
21	77	20	29.8
21	80	21	29.8
21	83	22	29.8
20	26	6	30.755579793139
20	29	7	33.573867989188
20	32	8	38.320734200798
20	35	9	44.940445002423
20	38	10	53.439403374757
20	41	11	63.902600357663
20	44	12	76.471895920097
20	47	13	91.028198097066
20	50	14	107.68136276727
20	54	15	126.36148034251
20	60	16	147.14355183925
20	66	17	169.92934023704
20	71	18	194.75382224542
20	74	19	221.38724858595
20	77	20	249.98943883346
20	80	21	280.49575191669
20	83	22	312.87129882625
vector 61 RSUExampleScenario.node[11].veinsmobility acceleration ETV
vector 62 RSUExampleScenario.node[11].veinsmobility co2emission ETV
vector 63 RSUExampleScenario.node[12].veinsmobility acceleration ETV
vector 64 RSUExampleScenario.node[12].veinsmobility co2emission ETV
vector 65 RSUExampleScenario.node[13].veinsmobility posx ETV
vector 66 RSUExampleScenario.node[13].veinsmobility posy ETV
19	23	5	3.8863983697458
19	26	6	4.6105360120911
19	29	7	6.100242262976
19	32	8	6.3745239615409
19	35	9	8.3265682249635
19	38	10	9.2408454179152
19	41	11	10.379252431997
19	44	12	11.707103612769
19	47	13	14.380459251159
19	50	14	15.509856063696
19	54	15	0.70317832590912
19	60	16	0.973
19	66	17	0.973
19	71	18	0.973
19	74	19	2.2575712737527
19	77	20	7.9266627298825
19	80	21	8.5173026969072
19	83	22	10.036069135254
19	86	23	10.61588637413
19	89	24	11.805361612477
18	23	5	2.1483353053965
18	26	6	1.9170574065298
18	29	7	2.0961512059066
18	32	8	1.7979797046003
18	35	9	2.0806367532629
18	38	10	1.9992086860491
18	41	11	1.9864360474167
18	44	12	2.0072760927049
18	47	13	2.249932359024
18	50	14	2.1701100613736
18	54	15	-0.47231415793549
18	60	16	-4.4431464920845
18	66	17	-4.5
18	71	18	-4.4911917742132
18	74	19	0.26359679510351
18	77	20	2.1625785181322
18	80	21	1.9740395024954
18	83	22	2.057588235389
18	86	23	1.9142642816878
18	89	24	1.9198964969069
15	20	4	2.7380168723571
15	23	5	4.8863521777536
15	26	6	6.8034095842834
15	29	7	8.89956079019
15	32	8	10.69754049479
15	35	9	12.778177248053
15	38	10	14.777385934102
15	41	11	16.763821981519
15	44	12	18.771098074224
15	47	13	21.021030433248
15	50	14	23.191140494621
15	54	15	22.718826336686
15	60	16	18.275679844601
15	66	17	13.775679844601
15	71	18	9.2844880703882
15	74	19	9.5480848654917
15	77	20	11.710663383624
15	80	21	13.684702886119
15	83	22	15.742291121508
15	86	23	17.656555403196
15	89	24	19.576451900103
9	15	3	29.8
9	20	4	29.8
9	23	5	29.8
9	26	6	29.8
9	29	7	29.8
9	32	8	29.8
9	35	9	29.8
9	38	10	29.8
9	41	11	29.8
9	44	12	33
9	47	13	33
9	50	14	33
9	54	15	33
9	60	16	33
9	66	17	33
9	71	18	33
9	74	19	36.667436241873
9	77	20	42.372236701168
9	80	21	49.152908617213
9	83	22	57.004834783338
9	86	23	65.861647088928
9	89	24	75.755442140665
8	15	3	30.250911514827
8	20	4	32.124642966796
8	23	5	36.065395346737
8	26	6	42.03266544379
8	29	7	50.020054931728
8	32	8	59.924278214326
8	35	9	71.80164225469
8	38	10	85.621037202302
8	41	11	101.50096124986
8	44	12	119.40878769728
8	47	13	139.37230066897
8	50	14	161.55808155664
8	54	15	185.21000494728
8	60	16	205.51068479188
8	66	17	221.31136463648
8	71	18	232.61783175609
8	74	19	240.64377381704
8	77	20	249.77118494887
8	80	21	260.61993956691
8	83	22	273.18265035869
8	86	23	287.35313148373
8	89	24	303.18273599585
29	38	10	3.8022585481321
29	41	11	4.8956372926226
29	44	12	5.3991140956319
29	47	13	6.4040465090154
29	50	14	7.1059671707777
29	54	15	8.7466247238855
29	60	16	9.6446481685753
29	66	17	11.110406514573
29	71	18	11.876217084375
29	74	19	13.319994803334
29	77	20	14.606491788676
29	80	21	18.021154211586
29	83	22	17.925236475142
29	86	23	20.715945507886
29	89	24	19.93964332265
28	38	10	2.1731036425056
28	41	11	2.0965991941304
28	44	12	1.8353924382851
28	47	13	1.8544699081173
28	50	14	1.7732679642015
28	54	15	1.9534351192485
28	60	16	1.8995954970154
28	66	17	1.9705228357599
28	71	18	1.8853695890005
28	74	19	1.9306674479158
28	77	20	1.9330665232311
28	80	21	2.2327276842995
28	83	22	1.9865548338765
28	86	23	2.1454282539827
28	89	24	1.8455864995346
27	35	9	2.5173213501673
27	38	10	4.6904249926729
27	41	11	6.7870241868033
27	44	12	8.6224166250883
27	47	13	10.476886533206
27	50	14	12.250154497407
27	54	15	14.203589616656
27	60	16	16.103185113671
27	66	17	18.073707949431
27	71	18	19.959077538431
27	74	19	21.889744986347
27	77	20	23.822811509578
27	80	21	26.055539193878
27	83	22	28.042094027754
27	86	23	30.187522281737
27	89	24	32.033108781272
24	32	8	29.8
24	35	9	29.8
24	38	10	29.8
24	41	11	29.8
24	44	12	29.8
24	47	13	29.8
24	50	14	29.8
24	54	15	29.8
24	60	16	29.8
24	66	17	29.8
24	71	18	29.8
24	74	19	29.8
24	77	20	29.8
24	80	21	29.8
24	83	22	29.8
24	86	23	29.8
24	89	24	29.8
23	32	8	30.125831785433
23	35	9	31.685222467186
23	38	10	35.38242327657
23	41	11	41.222666721686
23	44	12	49.019376726337
23	47	13	58.691099878843
23	50	14	70.216677625164
23	54	15	83.477374835396
23	60	16	98.77958917439
23	66	17	115.92672068954
23	71	18	135.01834757016
23	74	19	156.08065463562
23	77	20	179.0025097192
23	80	21	204.07577482529
23	83	22	231.226656161
23	86	23	260.4817227907
23	89	24	291.71821637116
vector 67 RSUExampleScenario.node[13].veinsmobility speed ETV
vector 68 RSUExampleScenario.node[13].veinsmobility acceleration ETV
vector 69 RSUExampleScenario.node[13].veinsmobility co2emission ETV
vector 70 RSUExampleScenario.node[14].veinsmobility posx ETV
vector 71 RSUExampleScenario.node[14].veinsmobility posy ETV
34	47	13	3.7517450063919
34	50	14	5.2828033722513
34	54	15	5.8184490128829
34	60	16	7.1016865917733
34	66	17	7.7548201395822
34	71	18	9.9338332970069
34	74	19	11.127058870095
34	77	20	12.420860339328
34	80	21	14.324303457234
34	83	22	14.261849732271
34	86	23	16.426322750695
34	89	24	17.220304618522
34	92	25	19.112498778846
34	95	26	18.896584192026
34	98	27	21.471251950685
33	47	13	1.9007397201448
33	50	14	2.1405446595885
33	54	15	1.8864717902709
33	60	16	1.9731651689578
33	66	17	1.8488758268347
33	71	18	2.125711218114
33	74	19	2.0937089927821
33	77	20	2.082739928891
33	80	21	2.1710082507134
33	83	22	1.9182632113551
33	86	23	2.0454524186673
33	89	24	1.9488106914074
33	92	25	2.0057579446561
33	95	26	1.7899479142204
33	98	27	1.9272421968472
32	44	12	3.2912820470421
32	47	13	5.1920217671869
32	50	14	7.3325664267754
32	54	15	9.2190382170462
32	60	16	11.192203386004
32	66	17	13.041079212839
32	71	18	15.166790430953
32	74	19	17.260499423735
32	77	20	19.343239352626
32	80	21	21.514247603339
32	83	22	23.432510814694
32	86	23	25.477963233361
32	89	24	27.426773924769
32	92	25	29.432531869425
32	95	26	31.222479783645
32	98	27	33.149721980493
31	41	11	29.8
31	44	12	29.8
31	47	13	29.8
31	50	14	29.8
31	54	15	29.8
31	60	16	29.8
31	66	17	29.8
31	71	18	29.8
31	74	19	29.8
31	77	20	29.8
31	80	21	29.8
31	83	22	29.8
31	86	23	29.8
31	89	24	29.8
31	92	25	29.8
31	95	26	29.8
31	98	27	29.8
30	41	11	30.46797817649
30	44	12	32.879697863086
30	47	13	37.17089140723
30	50	14	43.498586829138
30	54	15	51.923800626764
30	60	16	62.218248062796
30	66	17	74.445902360801
30	71	18	88.645581489605
30	74	19	104.92945373642
30	77	20	123.28921349101
30	80	21	143.82975251201
30	83	22	166.31091946267
30	86	23	190.91704323461
30	89	24	217.52165235375
30	92	25	246.0384371013
30	95	26	276.44787951749
30	98	27	308.75129026538
vector 72 RSUExampleScenario.node[14].veinsmobility speed ETV
vector 73 RSUExampleScenario.node[15].veinsmobility posx ETV
vector 74 RSUExampleScenario.node[15].veinsmobility posy ETV
vector 75 RSUExampleScenario.node[14].veinsmobility acceleration ETV
vector 76 RSUExampleScenario.node[14].veinsmobility co2emission ETV
vector 77 RSUExampleScenario.node[15].veinsmobility speed ETV
vector 78 RSUExampleScenario.node[15].veinsmobility acceleration ETV
vector 79 RSUExampleScenario.node[15].veinsmobility co2emission ETV
vector 80 RSUExampleScenario.node[16].veinsmobility posx ETV
vector 81 RSUExampleScenario.node[16].veinsmobility posy ETV
13	15	3	4.1188083979054
13	20	4	5.4526920171467
13	23	5	6.6218543542573
13	26	6	8.3929428354568
13	29	7	0.973
13	32	8	0.973
13	35	9	0.973
13	38	10	0.973
13	41	11	0.973
13	44	12	0.973
13	47	13	0.973
13	50	14	0.973
13	54	15	2.3904091769517
13	60	16	3.6346741933912
13	66	17	4.3398131384551
13	71	18	5.7078635919074
13	74	19	5.6039688023216
13	77	20	7.3598513981384
13	80	21	8.6837936264492
13	83	22	8.9611304248567
13	86	23	11.308924159559
13	89	24	13.007666296901
13	92	25	0.973
13	95	26	0.973
13	98	27	0.973
13	101	28	7.4908566813096
13	104	29	7.4602675865675
13	108	30	9.4129630003967
13	114	31	10.836193273449
13	120	32	11.890868638882
12	15	3	1.8537063351809
12	20	4	2.0132227228698
12	23	5	2.0297046207543
12	26	6	2.2023311051284
12	29	7	-2.8908638168811
12	32	8	-4.4672413725998
12	35	9	-4.4844150037986
12	38	10	-0.44027161711235
12	41	11	0
12	44	12	0
12	47	13	0
12	50	14	0
12	54	15	2.2061697699152
12	60	16	2.1805404510369
12	66	17	1.9122370863869
12	71	18	2.0564272508188
12	74	19	1.6292158217896
12	77	20	1.9232831671927
12	80	21	1.9874805925065
12	83	22	1.7834049005643
12	86	23	2.0642761029583
12	89	24	2.1322926979885
12	92	25	-4.1884756610543
12	95	26	-4.4999711390891
12	98	27	-1.8931586458111
12	101	28	2.078451509357
12	104	29	1.7429982795869
12	108	30	1.9927450000262
12	114	31	2.0405401321314
12	120	32	1.9959957148833
5	9	2	4.1838270264583
5	15	3	6.0375333616392
5	20	4	8.0507560845091
5	23	5	10.080460705263
5	26	6	12.282791810392
5	29	7	9.3919279935107
5	32	8	4.9246866209109
5	35	9	0.44027161711235
5	38	10	0
5	41	11	0
5	44	12	0
5	47	13	0
5	50	14	0
5	54	15	2.2061697699152
5	60	16	4.3867102209521
5	66	17	6.2989473073389
5	71	18	8.3553745581578
5	74	19	9.9845903799474
5	77	20	11.90787354714
5	80	21	13.895354139647
5	83	22	15.678759040211
5	86	23	17.743035143169
5	89	24	19.875327841158
5	92	25	15.686852180103
5	95	26	11.186881041014
5	98	27	9.2937223952031
5	101	28	11.37217390456
5	104	29	13.115172184147
5	108	30	15.107917184173
5	114	31	17.148457316305
5	120	32	19.144453031188
3	4	1	73.080139145959
3	9	2	71.376866061213
3	15	3	68.623829563408
3	20	4	64.790159104989
3	23	5	59.90460488775
3	26	6	53.923917570835
3	29	7	47.940552446217
3	32	8	44.261917592613
3	35	9	42.960731563871
3	38	10	42.960603537979
3	41	11	42.960603537979
3	44	12	42.960603537979
3	47	13	42.960603537979
3	50	14	42.960603537979
3	54	15	42.327423227523
3	60	16	40.513959377734
3	66	17	37.599159989313
3	71	18	33.669342191474
3	74	19	33
3	77	20	33
3	80	21	33
3	83	22	33
3	86	23	33
3	89	24	33
3	92	25	33
3	95	26	33
3	98	27	34.900647572702
3	101	28	40.402223613255
3	104	29	46.92463368776
3	108	30	54.433228467894
3	114	31	63.029052531668
3	120	32	72.701347102006
2	4	1	51.097004042362
2	9	2	53.821839381001
2	15	3	58.226048667792
2	20	4	64.359017500183
2	23	5	72.174752334009
2	26	6	81.742441917332
2	29	7	91.314415361607
2	32	8	97.199363780517
2	35	9	99.280954633453
2	38	10	99.281159444696
2	41	11	99.281159444696
2	44	12	99.281159444696
2	47	13	99.281159444696
2	50	14	99.281159444696
2	54	15	100.29407393166
2	60	16	103.19475150784
2	66	17	107.85704087526
2	71	18	114.1656689023
2	74	19	123.28555510535
2	77	20	134.29158512936
2	80	21	147.3167642655
2	83	22	162.15515360321
2	86	23	178.96038101448
2	89	24	197.89378946714
2	92	25	215.58210168792
2	95	26	228.79397695675
2	98	27	237.816995443
2	101	28	246.61925710901
2	104	29	257.05480498578
2	108	30	269.06820178547
2	114	31	282.82111405764
2	120	32	298.29632826741
46	71	18	3.6557502398392
46	74	19	4.899465009599
46	77	20	5.9203759995285
46	80	21	7.0781117404095
46	83	22	7.1385630524553
46	86	23	8.7278225880445
46	89	24	10.437595625788
46	92	25	11.058160866769
46	95	26	12.582844851015
46	98	27	13.846006666982
46	101	28	16.191586920161
46	104	29	17.241210141675
46	108	30	15.703195918526
46	114	31	17.736596762151
46	120	32	21.007721835777
45	71	18	2.0053024936491
45	74	19	2.0778125758609
45	77	20	2.020277091288
45	80	21	2.0271022560354
45	83	22	1.721390603818
45	86	23	1.8968985973927
45	89	24	2.0337524020393
45	92	25	1.9061276233685
45	95	26	1.9706840333552
45	98	27	1.9676507701096
45	101	28	2.1222049733717
45	104	29	2.0491236373596
45	108	30	1.6417303251149
45	114	31	1.7581470050919
45	120	32	1.9920815023664
42	66	17	2.7654112135598
42	71	18	4.7707137072089
42	74	19	6.8485262830698
42	77	20	8.8688033743578
42	80	21	10.895905630393
42	83	22	12.617296234211
42	86	23	14.514194831604
42	89	24	16.547947233643
42	92	25	18.454074857012
42	95	26	20.424758890367
42	98	27	22.392409660477
42	101	28	24.514614633848
42	104	29	26.563738271208
42	108	30	28.205468596323
42	114	31	29.963615601415
42	120	32	31.955697103781
39	60	16	29.8
39	66	17	29.8
39	71	18	29.8
39	74	19	29.8
39	77	20	29.8
39	80	21	29.8
39	83	22	29.8
39	86	23	29.8
39	89	24	29.8
39	92	25	29.8
39	95	26	29.8
39	98	27	29.8
39	101	28	29.8
39	104	29	29.8
39	108	30	29.8
39	114	31	29.8
39	120	32	29.8
38	60	16	30.17598566238
38	66	17	31.974031959763
38	71	18	35.855742672237
38	74	19	41.818229450196
38	77	20	49.761193060472
38	80	21	59.772685751368
38	83	22	71.608457814217
38	86	23	85.212913754831
38	89	24	100.90465996184
38	92	25	118.45141755367
38	95	26	137.98607224991
38	98	27	159.46248303137
38	101	28	183.01570292033
38	104	29	208.67355818657
38	108	30	236.1523465325
38	114	31	265.36614326576
38	120	32	296.40570138711
vector 82 RSUExampleScenario.node[16].veinsmobility speed ETV
vector 83 RSUExampleScenario.node[16].veinsmobility acceleration ETV
vector 84 RSUExampleScenario.node[16].veinsmobility co2emission ETV
vector 85 RSUExampleScenario.node[17].veinsmobility posx ETV
vector 86 RSUExampleScenario.node[17].veinsmobility posy ETV
58	80	21	3.9560449714555
58	83	22	5.1285558630374
58	86	23	6.4985708919405
58	89	24	6.4797462314196
58	92	25	7.7901794926939
58	95	26	9.3964195926025
58	98	27	9.4762556930722
58	101	28	11.93675399144
58	104	29	13.163865392483
58	108	30	15.115835068805
58	114	31	14.723175882782
58	120	32	17.159693867328
58	125	33	17.883756905475
58	128	34	20.77405206607
58	131	35	21.831253746886
57	80	21	1.9860119677219
57	83	22	2.030559750346
57	86	23	2.1139742351975
57	89	24	1.731709830747
57	92	25	1.849857788994
57	95	26	1.9908592887525
57	98	27	1.7520859037736
57	101	28	2.0418884800002
57	104	29	2.0242367656203
57	108	30	2.1200275235926
57	114	31	1.8346232661349
57	120	32	2.001953002254
57	125	33	1.9019478961337
57	128	34	2.0800521793403
57	131	35	2.0033695239434
52	77	20	3.3885757293898
52	80	21	5.3745876971117
52	83	22	7.4051474474577
52	86	23	9.5191216826552
52	89	24	11.250831513402
52	92	25	13.100689302396
52	95	26	15.091548591149
52	98	27	16.843634494922
52	101	28	18.885522974922
52	104	29	20.909759740543
52	108	30	23.029787264135
52	114	31	24.86441053027
52	120	32	26.866363532524
52	125	33	28.768311428658
52	128	34	30.848363607998
52	131	35	32.851733131942
48	74	19	29.8
48	77	20	29.8
48	80	21	29.8
48	83	22	29.8
48	86	23	29.8
48	89	24	29.8
48	92	25	29.8
48	95	26	29.8
48	98	27	29.8
48	101	28	29.8
48	104	29	29.8
48	108	30	29.8
48	114	31	29.8
48	120	32	29.8
48	125	33	29.8
48	128	34	29.8
48	131	35	29.8
47	74	19	30.615532662152
47	77	20	33.11503066884
47	80	21	37.610743141996
47	83	22	44.098473842241
47	86	23	52.640203995056
47	89	24	63.11481908532
47	92	25	75.370308773869
47	95	26	89.547120839772
47	98	27	105.58660527307
47	101	28	123.4869255578
47	104	29	143.52152911612
47	108	30	165.6392709354
47	114	31	189.71220630417
47	120	32	215.67920547591
47	125	33	243.63799918839
47	128	34	273.59131782372
47	131	35	305.57657698246
vector 87 RSUExampleScenario.node[18].veinsmobility posx ETV
vector 88 RSUExampleScenario.node[18].veinsmobility posy ETV
vector 89 RSUExampleScenario.node[17].veinsmobility speed ETV
41	60	16	4.1549720302575
41	66	17	5.1430652539947
41	71	18	5.9641647561174
41	74	19	7.2596191217451
41	77	20	8.4259987055837
41	80	21	9.8432092191782
41	83	22	11.495471978764
41	86	23	13.088560767947
41	89	24	13.97414979322
41	92	25	0.973
41	95	26	0.973
41	98	27	0.973
41	101	28	0.973
41	104	29	0.973
41	108	30	0.973
41	114	31	4.9903167636659
41	120	32	6.2465834961883
41	125	33	7.6099172637315
41	128	34	8.6099815594181
41	131	35	10.432705022541
41	134	36	11.770763602308
40	60	16	1.9435603754199
40	66	17	1.9264124423591
40	71	18	1.8539921160089
40	74	19	1.950277616675
40	77	20	1.9685626158491
40	80	21	2.0313199871755
40	83	22	2.1140197725012
40	86	23	2.1521111576026
40	89	24	2.0524538741098
40	92	25	-1.6171828932368
40	95	26	-3.7025680043069
40	98	27	-2.5268630700468
40	101	28	-0.72917432374647
40	104	29	-4.4239402439073
40	108	30	-2.2653789426689
40	114	31	1.7026493541989
40	120	32	1.850561029485
40	125	33	1.961734054368
40	128	34	1.9325157949375
40	131	35	2.0903461403726
40	134	36	2.092736781938
37	54	15	3.9143178915586
37	60	16	5.8578782669785
37	66	17	7.7842907093376
37	71	18	9.6382828253465
37	74	19	11.588560442021
37	77	20	13.557123057871
37	80	21	15.588443045046
37	83	22	17.702462817547
37	86	23	19.85457397515
37	89	24	21.90702784926
37	92	25	20.289844956023
37	95	26	16.587276951716
37	98	27	14.060413881669
37	101	28	13.331239557923
37	104	29	8.9072993140155
37	108	30	6.6419203713466
37	114	31	8.3445697255456
37	120	32	10.195130755031
37	125	33	12.156864809399
37	128	34	14.089380604336
37	131	35	16.179726744709
37	134	36	18.272463526647
36	50	14	29.8
36	54	15	29.8
36	60	16	29.8
36	66	17	29.8
36	71	18	29.8
36	74	19	29.8
36	77	20	29.8
36	80	21	29.8
36	83	22	29.8
36	86	23	33
36	89	24	33
36	92	25	33
36	95	26	33
36	98	27	33
36	101	28	33
36	104	29	33
36	108	30	33.927692146356
36	114	31	37.866798413424
36	120	32	42.841460057156
36	125	33	48.796888324667
36	128	34	55.805704203822
36	131	35	63.871447796629
36	134	36	73.070467794496
35	50	14	31.165277192715
35	54	15	34.229810771905
35	60	16	39.26565762108
35	66	17	46.152818577695
35	71	18	54.961379388743
35	74	19	65.723165564839
35	77	20	78.400576687018
35	80	21	93.088637159086
35	83	22	109.78477951335
35	86	23	128.6466061074
35	89	24	149.65170456309
35	92	25	171.3538544916
35	95	26	189.59929373768
35	98	27	204.52707707374
35	101	28	218.45267353013
35	104	29	229.37736686854
35	108	30	236.25535827452
35	114	31	242.56269661089
35	120	32	250.52192014343
35	125	33	260.05032392399
35	128	34	271.26409810115
35	131	35	284.16890667084
35	134	36	298.88690393113
vector 90 RSUExampleScenario.node[19].veinsmobility posx ETV
vector 91 RSUExampleScenario.node[19].veinsmobility posy ETV
vector 92 RSUExampleScenario.node[17].veinsmobility acceleration ETV
vector 93 RSUExampleScenario.node[17].veinsmobility co2emission ETV
vector 94 RSUExampleScenario.node[18].veinsmobility speed ETV
vector 95 RSUExampleScenario.node[18].veinsmobility acceleration ETV
vector 96 RSUExampleScenario.node[18].veinsmobility co2emission ETV
vector 97 RSUExampleScenario.node[19].veinsmobility speed ETV
62	86	23	3.3212668300398
62	89	24	4.9040400910581
62	92	25	5.2324208790606
62	95	26	7.3183258763222
62	98	27	7.4383071750877
62	101	28	8.6623882867268
62	104	29	10.039510482619
62	108	30	10.781237433553
62	114	31	12.607299733328
62	120	32	13.402013910424
62	125	33	15.285543557066
62	128	34	16.545587024744
62	131	35	19.060902151626
62	134	36	18.310770602844
62	137	37	20.255873982286
62	140	38	22.613605952772
61	86	23	1.9750044725562
61	89	24	2.2302602617582
61	92	25	1.8404884495446
61	95	26	2.2135336400522
61	98	27	1.8664944759244
61	101	28	1.9173044551141
61	104	29	1.9784747429984
61	108	30	1.8862040426536
61	114	31	2.0118138178461
61	120	32	1.9237292398163
61	125	33	2.0187837268762
61	128	34	1.9942132902588
61	131	35	2.1339705082588
61	134	36	1.8288959320821
61	137	37	1.8955642774631
61	140	38	1.9879762622178
59	83	22	2.2301270362817
59	86	23	4.2051315088379
59	89	24	6.4353917705961
59	92	25	8.2758802201407
59	95	26	10.489413860193
59	98	27	12.355908336117
59	101	28	14.273212791231
59	104	29	16.25168753423
59	108	30	18.137891576883
59	114	31	20.149705394729
59	120	32	22.073434634546
59	125	33	24.092218361422
59	128	34	26.086431651681
59	131	35	28.22040215994
59	134	36	30.049298092022
59	137	37	31.944862369485
59	140	38	33.932838631703
54	80	21	29.8
54	83	22	29.8
54	86	23	29.8
54	89	24	29.8
54	92	25	29.8
54	95	26	29.8
54	98	27	29.8
54	101	28	29.8
54	104	29	29.8
54	108	30	29.8
54	114	31	29.8
54	120	32	29.8
54	125	33	29.8
54	128	34	29.8
54	131	35	29.8
54	134	36	29.8
54	137	37	29.8
54	140	38	29.8
53	80	21	30.1
53	83	22	31.391951335758
53	86	23	34.700578436551
53	89	24	40.091779930231
53	92	25	47.565416405799
53	95	26	57.057474012082
53	98	27	68.578855422703
53	101	28	82.022507255807
53	104	29	97.39538210167
53	108	30	114.61059221669
53	114	31	133.82302525084
53	120	32	155.05888834144
53	125	33	178.2213343534
53	128	34	203.42116603308
53	131	35	230.64760544011
53	134	36	259.88319573697
53	137	37	290.93440334919
53	140	38	323.98406855602
vector 98 RSUExampleScenario.node[20].veinsmobility posx ETV
vector 99 RSUExampleScenario.node[20].veinsmobility posy ETV
vector 100 RSUExampleScenario.node[19].veinsmobility acceleration ETV
vector 101 RSUExampleScenario.node[19].veinsmobility co2emission ETV
vector 102 RSUExampleScenario.node[21].veinsmobility posx ETV
vector 103 RSUExampleScenario.node[21].veinsmobility posy ETV
vector 104 RSUExampleScenario.node[20].veinsmobility speed ETV
69	95	26	3.4282436325034
69	98	27	4.5601612007792
69	101	28	5.2059663794497
69	104	29	6.751496854271
69	108	30	7.8212322434431
69	114	31	9.1377903049329
69	120	32	10.609109450291
69	125	33	10.744292201581
69	128	34	11.752596401034
69	131	35	13.856561104946
69	134	36	15.279688811587
69	137	37	15.758342533725
69	140	38	18.70370807259
69	143	39	19.19707499567
69	146	40	19.340846129895
68	95	26	1.8181165919686
68	98	27	1.9279097752669
68	101	28	1.7823248849995
68	104	29	1.9973068018653
68	108	30	1.980271758819
68	114	31	2.0237588811945
68	120	32	2.0786357601383
68	125	33	1.8451783073531
68	128	34	1.8283920193999
68	131	35	1.9930449270201
68	134	36	2.0041138829151
68	137	37	1.8700503366417
68	140	38	2.0877885862836
68	143	39	1.9449054567982
68	146	40	1.7819843839551
67	92	25	2.9276496935429
67	95	26	4.7457662855115
67	98	27	6.6736760607784
67	101	28	8.4560009457779
67	104	29	10.453307747643
67	108	30	12.433579506462
67	114	31	14.457338387657
67	120	32	16.535974147795
67	125	33	18.381152455148
67	128	34	20.209544474548
67	131	35	22.202589401568
67	134	36	24.206703284483
67	137	37	26.076753621125
67	140	38	28.164542207409
67	143	39	30.109447664207
67	146	40	31.891432048162
66	89	24	29.8
66	92	25	29.8
66	95	26	29.8
66	98	27	29.8
66	101	28	29.8
66	104	29	29.8
66	108	30	29.8
66	114	31	29.8
66	120	32	29.8
66	125	33	29.8
66	128	34	29.8
66	131	35	29.8
66	134	36	29.8
66	137	37	29.8
66	140	38	29.8
66	143	39	29.8
66	146	40	29.8
65	89	24	30.341563678613
65	92	25	32.416405228385
65	95	26	36.36892087546
65	98	27	42.200909187692
65	101	28	49.874680651928
65	104	29	59.420593728782
65	108	30	70.945539463222
65	114	31	84.529315095779
65	120	32	100.12147969097
65	125	33	117.61973605489
65	128	34	137.0271574818
65	131	35	158.34675794831
65	134	36	181.6696113423
65	137	37	206.88180627653
65	140	38	234.00662364398
65	143	39	263.24743402215
65	146	40	294.3538134423
vector 105 RSUExampleScenario.node[20].veinsmobility acceleration ETV
vector 106 RSUExampleScenario.node[20].veinsmobility co2emission ETV
vector 107 RSUExampleScenario.node[21].veinsmobility speed ETV
vector 108 RSUExampleScenario.node[22].veinsmobility posx ETV
vector 109 RSUExampleScenario.node[22].veinsmobility posy ETV
vector 110 RSUExampleScenario.node[21].veinsmobility acceleration ETV
vector 111 RSUExampleScenario.node[21].veinsmobility co2emission ETV
vector 112 RSUExampleScenario.node[22].veinsmobility speed ETV
vector 113 RSUExampleScenario.node[22].veinsmobility acceleration ETV
vector 114 RSUExampleScenario.node[22].veinsmobility co2emission ETV
17	23	5	3.4262063103423
17	26	6	4.4966878021468
17	29	7	5.8561810713808
17	32	8	6.0235984043447
17	35	9	0.973
17	38	10	0.973
17	41	11	0.973
17	44	12	0.973
17	47	13	0.973
17	50	14	0.973
17	54	15	1.4014785979812
17	60	16	2.4920362337042
17	66	17	1.9151672365716
17	71	18	0.973
17	74	19	0.973
17	77	20	0.973
17	80	21	0.973
17	83	22	0.973
17	86	23	0.973
17	89	24	0.973
17	92	25	0.973
17	95	26	0.973
17	98	27	0.973
17	101	28	0.973
17	104	29	0.973
17	108	30	2.4954741605798
17	114	31	3.4639881035047
17	120	32	4.606205992525
17	125	33	5.3882058946129
17	128	34	6.1231105406456
17	131	35	7.2636524582935
17	134	36	8.1669891540651
17	137	37	9.8389869052492
17	140	38	11.597238538279
17	143	39	12.537111642429
17	146	40	13.819617543038
17	149	41	14.820089142273
17	152	42	15.79888870709
17	155	43	18.349911983023
17	158	44	18.351203018417
16	23	5	1.8251953614363
16	26	6	1.9030772150657
16	29	7	2.0423187354836
16	32	8	1.7205276482149
16	35	9	-3.1134051606318
16	38	10	-2.5751175958894
16	41	11	-2.0462628847758
16	44	12	-1.4207165082639
16	47	13	-0.72092869274822
16	50	14	-0.32640508220199
16	54	15	0.90527987006417
16	60	16	1.78723152785
16	66	17	0.72212687571276
16	71	18	-3.602929262499
16	74	19	-6.3336758850022e-05
16	77	20	0
16	80	21	0
16	83	22	0
16	86	23	0
16	89	24	0
16	92	25	0
16	95	26	0
16	98	27	0
16	101	28	0
16	104	29	0
16	108	30	2.2987117271103
16	114	31	2.0425509806893
16	120	32	2.0529459356051
16	125	33	1.9108695103577
16	128	34	1.81584558914
16	131	35	1.8734967756923
16	134	36	1.8426502999617
16	137	37	1.9919802310201
16	140	38	2.103230603768
16	143	39	2.0232430779468
16	146	40	2.0151410624245
16	149	41	1.9577931951895
16	152	42	1.9035200998047
16	155	43	2.0656963412231
16	158	44	1.8640737534617
14	20	4	2.9000712899415
14	23	5	4.7252666513779
14	26	6	6.6283438664436
14	29	7	8.6706626019272
14	32	8	10.391190250142
14	35	9	7.2777850895103
14	38	10	4.7026674936209
14	41	11	2.656404608845
14	44	12	1.2356881005811
14	47	13	0.51475940783287
14	50	14	0.18835432563088
14	54	15	1.0936341956951
14	60	16	2.8808657235451
14	66	17	3.6029925992578
14	71	18	6.3336758850022e-05
14	74	19	0
14	77	20	0
14	80	21	0
14	83	22	0
14	86	23	0
14	89	24	0
14	92	25	0
14	95	26	0
14	98	27	0
14	101	28	0
14	104	29	0
14	108	30	2.2987117271103
14	114	31	4.3412627077997
14	120	32	6.3942086434048
14	125	33	8.3050781537625
14	128	34	10.120923742902
14	131	35	11.994420518595
14	134	36	13.837070818556
14	137	37	15.829051049577
14	140	38	17.932281653345
14	143	39	19.955524731291
14	146	40	21.970665793716
14	149	41	23.928458988905
14	152	42	25.83197908871
14	155	43	27.897675429933
14	158	44	29.761749183395
7	15	3	73.578776054988
7	20	4	72.5513637453
7	23	5	70.455138219204
7	26	6	67.392581670538
7	29	7	63.268929899442
7	32	8	58.117778030718
7	35	9	53.515473731019
7	38	10	50.412330125377
7	41	11	48.562721289709
7	44	12	47.613790520489
7	47	13	47.189470050246
7	50	14	47.027673062299
7	54	15	46.750969828913
7	60	16	45.66674127272
7	66	17	43.643654682998
7	71	18	42.960603637379
7	74	19	42.960603637379
7	77	20	42.960603637379
7	80	21	42.960603637379
7	83	22	42.960603637379
7	86	23	42.960603637379
7	89	24	42.960603637379
7	92	25	42.960603637379
7	95	26	42.960603637379
7	98	27	42.960603637379
7	101	28	42.960603637379
7	104	29	42.960603637379
7	108	30	42.317813152218
7	114	31	40.506972362887
7	120	32	37.599549873205
7	125	33	33.623613656034
7	128	34	29.8
7	131	35	29.8
7	134	36	29.8
7	137	37	29.8
7	140	38	29.8
7	143	39	29.8
7	146	40	29.8
7	149	41	29.8
7	152	42	29.8
7	155	43	29.8
7	158	44	29.8
6	15	3	50.2993025563
6	20	4	51.942920008992
6	23	5	55.296386603643
6	26	6	60.195754993316
6	29	7	66.792625554327
6	32	8	75.033254008036
6	35	9	82.395855758335
6	38	10	87.360153869571
6	41	11	90.319091906708
6	44	12	91.837157398993
6	47	13	92.515970105294
6	50	14	92.774807137589
6	54	15	93.217467070044
6	60	16	94.951977121036
6	66	17	98.188438662153
6	71	18	99.281159285679
6	74	19	99.281159285679
6	77	20	99.281159285679
6	80	21	99.281159285679
6	83	22	99.281159285679
6	86	23	99.281159285679
6	89	24	99.281159285679
6	92	25	99.281159285679
6	95	26	99.281159285679
6	98	27	99.281159285679
6	101	28	99.281159285679
6	104	29	99.281159285679
6	108	30	100.30944547047
6	114	31	103.20592740048
6	120	32	107.85641724691
6	125	33	114.24162477472
6	128	34	123.36202016752
6	131	35	134.48066914521
6	134	36	147.48784585947
6	137	37	162.41343121188
6	140	38	179.4161530197
6	143	39	198.43471732653
6	146	40	219.5245125809
6	149	41	242.52530604603
6	152	42	267.48990189461
6	155	43	294.45603324778
6	158	44	323.40292475725
vector 115 RSUExampleScenario.node[23].veinsmobility posx ETV
vector 116 RSUExampleScenario.node[23].veinsmobility posy ETV
vector 117 RSUExampleScenario.node[23].veinsmobility speed ETV
79	114	31	3.6113341802191
79	120	32	4.8030046640332
79	125	33	5.5369573453621
79	128	34	6.8977241724422
79	131	35	7.1548449737257
79	134	36	7.902618925052
79	137	37	9.7692800452531
79	140	38	11.24962495563
79	143	39	13.034704048393
79	146	40	13.617180808859
79	149	41	13.818100031135
79	152	42	15.747555307497
79	155	43	18.328671409101
79	158	44	18.210205818367
79	162	45	20.806360013877
79	168	46	20.859179332349
78	114	31	2.0437765038991
78	120	32	2.0753220357536
78	125	33	1.9091839934653
78	128	34	2.0195632603928
78	131	35	1.7671519247373
78	134	36	1.7222548370808
78	137	37	1.9408340120036
78	140	38	2.0060216260725
78	143	39	2.0999408531096
78	146	40	1.9598275164515
78	149	41	1.7875950574805
78	152	42	1.8993085455126
78	155	43	2.0665590610868
78	158	44	1.8495685034362
78	162	45	1.9923692427436
78	168	46	1.8140409602038
77	108	30	2.5648352683114
77	114	31	4.6086117722105
77	120	32	6.6839338079641
77	125	33	8.5931178014294
77	128	34	10.612681061822
77	131	35	12.379832986559
77	134	36	14.10208782364
77	137	37	16.042921835644
77	140	38	18.048943461716
77	143	39	20.148884314826
77	146	40	22.108711831277
77	149	41	23.896306888758
77	152	42	25.795615434271
77	155	43	27.862174495357
77	158	44	29.711742998794
77	162	45	31.704112241537
77	168	46	33.518153201741
74	104	29	29.8
74	108	30	29.8
74	114	31	29.8
74	120	32	29.8
74	125	33	29.8
74	128	34	29.8
74	131	35	26.6
74	134	36	26.6
74	137	37	26.6
74	140	38	26.6
74	143	39	26.6
74	146	40	26.6
74	149	41	26.6
74	152	42	26.6
74	155	43	26.6
74	158	44	26.6
74	162	45	26.6
74	168	46	26.6
73	104	29	30.125752863912
73	108	30	31.669840314369
73	114	31	35.36452409219
73	120	32	41.171445683539
73	125	33	48.901078751169
73	128	34	58.602274745185
73	131	35	70.198877651513
73	134	36	83.497954899386
73	137	37	98.690804138026
73	140	38	115.82203764282
73	143	39	135.09363541817
73	146	40	156.38265573202
73	149	41	179.44597890927
73	152	42	204.36142749526
73	155	43	231.24119158304
73	158	44	260.12777698796
73	162	45	290.98807504944
73	168	46	323.70809863892
vector 118 RSUExampleScenario.node[23].veinsmobility acceleration ETV
vector 119 RSUExampleScenario.node[23].veinsmobility co2emission ETV
vector 120 RSUExampleScenario.node[24].veinsmobility posx ETV
vector 121 RSUExampleScenario.node[24].veinsmobility posy ETV
84	128	34	3.4630268375969
84	131	35	4.7880746429486
84	134	36	5.7897364595057
84	137	37	7.2398683363561
84	140	38	7.1990800154999
84	143	39	8.6812564321909
84	146	40	10.407912186765
84	149	41	11.414025407475
84	152	42	12.946155284197
84	155	43	15.404286051133
84	158	44	14.62225597318
84	162	45	16.204919473344
84	168	46	16.821288003499
84	174	47	18.879159456385
84	179	48	19.899402908599
83	128	34	1.7622105890186
83	131	35	1.9823824303737
83	134	36	1.9542241588491
83	137	37	2.0740089553827
83	140	38	1.7289133479446
83	143	39	1.8752392288414
83	146	40	2.0203544972674
83	149	41	1.9716342745465
83	152	42	2.0236402660818
83	155	43	2.2038455788559
83	158	44	1.8437286715815
83	162	45	1.8918634759938
83	168	46	1.7947695265338
83	174	47	1.890909887678
83	179	48	1.8390535069723
82	125	33	3.1894681280932
82	128	34	4.9516787171119
82	131	35	6.9340611474856
82	134	36	8.8882853063347
82	137	37	10.962294261717
82	140	38	12.691207609662
82	143	39	14.566446838503
82	146	40	16.586801335771
82	149	41	18.558435610317
82	152	42	20.582075876399
82	155	43	22.785921455255
82	158	44	24.629650126837
82	162	45	26.52151360283
82	168	46	28.316283129364
82	174	47	30.207193017042
82	179	48	32.046246524014
81	120	32	29.8
81	125	33	29.8
81	128	34	29.8
81	131	35	29.8
81	134	36	29.8
81	137	37	29.8
81	140	38	29.8
81	143	39	29.8
81	146	40	29.8
81	149	41	29.8
81	152	42	29.8
81	155	43	29.8
81	158	44	29.8
81	162	45	29.8
81	168	46	29.8
81	174	47	29.8
81	179	48	29.8
80	120	32	30.470775532589
80	125	33	32.838398482496
80	128	34	36.997244902156
80	131	35	43.030979949154
80	134	36	51.061875064907
80	137	37	61.134897394526
80	140	38	73.073888562563
80	143	39	86.830990996875
80	146	40	102.50124034985
80	149	41	120.1133641422
80	152	42	139.7813740627
80	155	43	161.59104074712
80	158	44	185.35740318939
80	162	45	210.98230162076
80	168	46	238.50095498637
80	174	47	267.89795625467
80	179	48	299.06736451695
vector 122 RSUExampleScenario.node[24].veinsmobility speed ETV
76	104	29	3.9077852145124
76	108	30	4.5923056679904
76	114	31	6.0225002169099
76	120	32	7.6720460233822
76	125	33	8.3078791265526
76	128	34	5.1236811010307
76	131	35	2.733667434624
76	134	36	5.4619580770707
76	137	37	7.4004268361906
76	140	38	8.4893492431715
76	143	39	11.213053244548
76	146	40	8.3631433498472
76	149	41	0.973
76	152	42	0.973
76	155	43	0.973
76	158	44	4.7482804081807
76	162	45	6.5822740159394
76	168	46	7.4972743223437
76	174	47	10.123990178406
76	179	48	11.001921589695
76	182	49	11.598261480474
75	104	29	1.8844479033817
75	108	30	1.7595403330005
75	114	31	1.9671635560319
75	120	32	2.1379588969192
75	125	33	1.9655451073614
75	128	34	0.88998493313089
75	131	35	0.18629177082434
75	134	36	0.88754451341208
75	137	37	1.26674253423
75	140	38	1.3791595583882
75	143	39	1.7728585089133
75	146	40	1.0784489115039
75	149	41	-4.4058735974213
75	152	42	-4.4774177087994
75	155	43	-3.8557991120733
75	158	44	1.3626805377146
75	162	45	1.7740845196391
75	168	46	1.7737083470798
75	174	47	2.176063681778
75	179	48	2.0663158631651
75	182	49	1.9289509533765
72	101	28	3.6532551916021
72	104	29	5.5377030949837
72	108	30	7.2972434279842
72	114	31	9.2644069840161
72	120	32	11.402365880935
72	125	33	13.367910988297
72	128	34	14.257895921428
72	131	35	14.444187692252
72	134	36	15.331732205664
72	137	37	16.598474739894
72	140	38	17.977634298282
72	143	39	19.750492807195
72	146	40	20.828941718699
72	149	41	16.423068121278
72	152	42	11.945650412479
72	155	43	8.0898513004053
72	158	44	9.4525318381199
72	162	45	11.226616357759
72	168	46	13.000324704839
72	174	47	15.176388386617
72	179	48	17.242704249782
72	182	49	19.171655203158
71	98	27	29.8
71	101	28	29.8
71	104	29	29.8
71	108	30	29.8
71	114	31	29.8
71	120	32	29.8
71	125	33	29.8
71	128	34	29.8
71	131	35	29.8
71	134	36	33
71	137	37	33
71	140	38	33
71	143	39	33
71	146	40	33
71	149	41	33
71	152	42	33
71	155	43	33.091853845394
71	158	44	37.429589787134
71	162	45	42.934552373367
71	168	46	49.399377598396
71	174	47	56.911024114126
71	179	48	65.585271011322
71	182	49	75.293408804022
70	98	27	30.760058562694
70	101	28	33.48177154411
70	104	29	38.244003048258
70	108	30	44.718873382652
70	114	31	53.102710860539
70	120	32	63.512365495957
70	125	33	76.034962714424
70	128	34	90.170743205061
70	131	35	104.53024873894
70	134	36	119.43695635146
70	137	37	135.63133445166
70	140	38	152.92619294318
70	143	39	171.84486826376
70	146	40	192.50418143702
70	149	41	210.91852062934
70	152	42	224.87336343798
70	155	43	234.42704999506
70	158	44	241.86318347086
70	162	45	250.67086344992
70	168	46	261.01427828893
70	174	47	273.03255772135
70	179	48	286.91094282081
70	182	49	302.44350449245
vector 123 RSUExampleScenario.node[25].veinsmobility posx ETV
vector 124 RSUExampleScenario.node[25].veinsmobility posy ETV
vector 125 RSUExampleScenario.node[24].veinsmobility acceleration ETV
vector 126 RSUExampleScenario.node[24].veinsmobility co2emission ETV
vector 127 RSUExampleScenario.node[25].veinsmobility speed ETV
93	137	37	3.9866842659967
93	140	38	5.09556231606
93	143	39	6.4334625834075
93	146	40	7.8049854562747
93	149	41	8.6703800192062
93	152	42	9.0123245250564
93	155	43	9.8571663231399
93	158	44	11.564830474026
93	162	45	14.194074228582
93	168	46	13.654227887323
93	174	47	16.0798475116
93	179	48	17.381100631547
93	182	49	18.693691726892
93	185	50	20.5308905815
93	188	51	23.391206208086
92	137	37	1.8513068652316
92	140	38	1.9232524161623
92	143	39	2.0319320058357
92	146	40	2.094115479514
92	149	41	1.9953599213879
92	152	42	1.803925486051
92	155	43	1.7696409747517
92	158	44	1.904154123955
92	162	45	2.1534129766189
92	168	46	1.8273265527166
92	174	47	2.0101480234205
92	179	48	1.9889493959933
92	182	49	1.9662065502792
92	185	50	2.0037306562206
92	188	51	2.1407913333643
89	134	36	3.9310463069355
89	137	37	5.7823531721671
89	140	38	7.7056055883293
89	143	39	9.737537594165
89	146	40	11.831653073679
89	149	41	13.827012995067
89	152	42	15.630938481118
89	155	43	17.40057945587
89	158	44	19.304733579825
89	162	45	21.458146556443
89	168	46	23.28547310916
89	174	47	25.29562113258
89	179	48	27.284570528574
89	182	49	29.250777078853
89	185	50	31.254507735074
89	188	51	33.395299068438
86	131	35	29.8
86	134	36	29.8
86	137	37	29.8
86	140	38	29.8
86	143	39	29.8
86	146	40	29.8
86	149	41	29.8
86	152	42	29.8
86	155	43	29.8
86	158	44	29.8
86	162	45	29.8
86	168	46	29.8
86	174	47	29.8
86	179	48	29.8
86	182	49	29.8
86	185	50	29.8
86	188	51	29.8
85	131	35	30.937165188007
85	134	36	33.916484345247
85	137	37	38.847801782276
85	140	38	45.714148261652
85	143	39	54.536707246387
85	146	40	65.410876619216
85	149	41	78.31201949977
85	152	42	93.122566400232
85	155	43	109.69297378022
85	158	44	128.15323953696
85	162	45	148.66117807396
85	168	46	171.07260630127
85	174	47	195.41782673551
85	179	48	221.78294625609
85	182	49	250.17066392604
85	185	50	280.56121958022
85	188	51	312.98637857389
vector 128 RSUExampleScenario.node[25].veinsmobility acceleration ETV
vector 129 RSUExampleScenario.node[25].veinsmobility co2emission ETV
vector 130 RSUExampleScenario.node[26].veinsmobility posx ETV
vector 131 RSUExampleScenario.node[26].veinsmobility posy ETV
vector 132 RSUExampleScenario.node[27].veinsmobility posx ETV
vector 133 RSUExampleScenario.node[27].veinsmobility posy ETV
vector 134 RSUExampleScenario.node[26].veinsmobility speed ETV
vector 135 RSUExampleScenario.node[26].veinsmobility acceleration ETV
vector 136 RSUExampleScenario.node[26].veinsmobility co2emission ETV
vector 137 RSUExampleScenario.node[27].veinsmobility speed ETV
vector 138 RSUExampleScenario.node[28].veinsmobility posx ETV
vector 139 RSUExampleScenario.node[28].veinsmobility posy ETV
vector 140 RSUExampleScenario.node[27].veinsmobility acceleration ETV
vector 141 RSUExampleScenario.node[27].veinsmobility co2emission ETV
111	152	42	3.9553601422082
111	155	43	4.9401641012279
111	158	44	5.9995298329819
111	162	45	7.0774638023333
111	168	46	8.119824157472
111	174	47	9.6312950493601
111	179	48	9.0987858759723
111	182	49	9.2029860992913
111	185	50	12.347049106116
111	188	51	12.736841261234
111	191	52	15.844498754857
111	194	53	17.987407758512
111	197	54	17.004263980246
111	200	55	20.044158164121
111	203	56	22.615916284041
110	152	42	1.9823034668644
110	155	43	1.9474878176488
110	158	44	1.9525238431524
110	162	45	1.954930361486
110	168	46	1.9405065682949
110	174	47	2.0353123321035
110	179	48	1.655825002715
110	182	49	1.4987744507683
110	185	50	1.9380266257352
110	188	51	1.7954777703225
110	191	52	2.1014347558073
110	194	53	2.1866557585378
110	197	54	1.8315329833352
110	200	55	2.044589684729
110	203	56	2.1499633883359
107	149	41	3.3999972693093
107	152	42	5.3823007361737
107	155	43	7.3297885538225
107	158	44	9.2823123969749
107	162	45	11.237242758461
107	168	46	13.177749326756
107	174	47	15.213061658859
107	179	48	16.868886661574
107	182	49	18.367661112343
107	185	50	20.305687738078
107	188	51	22.1011655084
107	191	52	24.202600264208
107	194	53	26.389256022746
107	197	54	28.220789006081
107	200	55	30.26537869081
107	203	56	32.415342079146
103	146	40	29.8
103	149	41	29.8
103	152	42	29.8
103	155	43	29.8
103	158	44	29.8
103	162	45	29.8
103	168	46	29.8
103	174	47	29.8
103	179	48	29.8
103	182	49	26.6
103	185	50	26.6
103	188	51	26.6
103	191	52	26.6
103	194	53	26.6
103	197	54	26.6
103	200	55	26.6
103	203	56	26.6
102	146	40	30.589871332487
102	149	41	33.122017424639
102	152	42	37.648881947213
102	155	43	44.119156880193
102	158	44	52.450729645622
102	162	45	62.788435508099
102	168	46	75.093321807761
102	174	47	89.421146619804
102	179	48	105.55393038511
102	182	49	123.22668338433
102	185	50	142.66069814812
102	188	51	163.97717371023
102	191	52	187.19410788827
102	194	53	212.66101740621
102	197	54	239.96964520301
102	200	55	269.28838478793
102	203	56	300.71628924202
vector 142 RSUExampleScenario.node[29].veinsmobility posx ETV
vector 143 RSUExampleScenario.node[29].veinsmobility posy ETV
vector 144 RSUExampleScenario.node[28].veinsmobility speed ETV
vector 145 RSUExampleScenario.node[30].veinsmobility posx ETV
vector 146 RSUExampleScenario.node[30].veinsmobility posy ETV
vector 147 RSUExampleScenario.node[28].veinsmobility acceleration ETV
vector 148 RSUExampleScenario.node[28].veinsmobility co2emission ETV
vector 149 RSUExampleScenario.node[29].veinsmobility speed ETV
101	143	39	3.4537235129041
101	146	40	4.8788601773001
101	149	41	5.9366548831807
101	152	42	6.3707716618552
101	155	43	7.945931628479
101	158	44	8.7503873060914
101	162	45	10.064950696257
101	168	46	10.849939386711
101	174	47	12.470226242635
101	179	48	13.543386576808
101	182	49	10.986920929122
101	185	50	0.973
101	188	51	0.973
101	191	52	0.973
101	194	53	0.973
101	197	54	7.4492492100751
101	200	55	8.4462482564203
101	203	56	10.257349196262
101	206	57	11.280520546981
101	209	58	10.760113443553
100	143	39	1.8964461251185
100	146	40	2.1070539570949
100	149	41	2.0515894734347
100	152	42	1.816915897741
100	155	43	1.9923601961578
100	158	44	1.9064869041834
100	162	45	1.95495658712
100	168	46	1.876398632424
100	174	47	1.9650755148195
100	179	48	1.932005545774
100	182	49	1.3274417231267
100	185	50	-4.4460054149828
100	188	51	-4.5
100	191	52	-4.4998316551955
100	194	53	-0.34900388653157
100	197	54	1.9869788287301
100	200	55	1.9509300342854
100	203	56	2.1063867840846
100	206	57	2.0429341403442
100	209	58	1.702091682672
97	140	38	2.7239530982321
97	143	39	4.6203992233506
97	146	40	6.7274531804455
97	149	41	8.7790426538803
97	152	42	10.595958551621
97	155	43	12.588318747779
97	158	44	14.494805651962
97	162	45	16.449762239082
97	168	46	18.326160871506
97	174	47	20.291236386326
97	179	48	22.2232419321
97	182	49	23.550683655227
97	185	50	19.104678240244
97	188	51	14.604678240244
97	191	52	10.104846585048
97	194	53	9.7558426985168
97	197	54	11.742821527247
97	200	55	13.693751561532
97	203	56	15.800138345617
97	206	57	17.843072485961
97	209	58	19.545164168633
91	137	37	29.8
91	140	38	29.8
91	143	39	29.8
91	146	40	29.8
91	149	41	29.8
91	152	42	29.8
91	155	43	29.8
91	158	44	29.8
91	162	45	29.8
91	168	46	33
91	174	47	33
91	179	48	33
91	182	49	33
91	185	50	33
91	188	51	33
91	191	52	33
91	194	53	36.030792398149
91	197	54	41.772392740982
91	200	55	48.592984968736
91	203	56	56.453717249312
91	206	57	65.409609157451
91	209	58	75.362076414494
90	137	37	30.175736723844
90	140	38	31.924646872179
90	143	39	35.675961441953
90	146	40	41.412962883749
90	149	41	49.256534099637
90	152	42	59.009266817639
90	155	43	70.718578313816
90	158	44	84.309681017283
90	162	45	99.869467553427
90	168	46	117.30050836483
90	174	47	136.64692425065
90	179	48	158.02018324434
90	182	49	181.2082592913
90	185	50	202.33253807304
90	188	51	218.96221631329
90	191	52	231.09191138801
90	194	53	239.62517375422
90	197	54	248.81146296058
90	200	55	259.72408819076
90	203	56	272.3008883495
90	206	57	286.62989215622
90	209	58	302.55336942404
vector 150 RSUExampleScenario.node[29].veinsmobility acceleration ETV
vector 151 RSUExampleScenario.node[29].veinsmobility co2emission ETV
vector 152 RSUExampleScenario.node[30].veinsmobility speed ETV
51	77	20	3.2746294729434
51	80	21	4.5773771751043
51	83	22	5.4506100762732
51	86	23	6.1868344168254
51	89	24	0.973
51	92	25	0.973
51	95	26	0.973
51	98	27	0.973
51	101	28	0.973
51	104	29	0.973
51	108	30	1.4162248975138
51	114	31	2.3337192838028
51	120	32	2.1859745463505
51	125	33	0.973
51	128	34	0.973
51	131	35	0.973
51	134	36	0.973
51	137	37	0.973
51	140	38	0.973
51	143	39	0.973
51	146	40	0.973
51	149	41	0.973
51	152	42	0.973
51	155	43	0.973
51	158	44	0.973
51	162	45	2.4558126696919
51	168	46	3.4267949544447
51	174	47	4.3810754000849
51	179	48	3.8905914025968
51	182	49	3.7211476011586
51	185	50	6.9357673197334
51	188	51	8.2325756569694
51	191	52	8.9741870315711
51	194	53	9.682590131241
51	197	54	10.756305152491
51	200	55	11.908058236946
51	203	56	13.528235098894
51	206	57	14.936017613862
51	209	58	16.891793635642
51	212	59	17.400517054731
50	77	20	1.9320847289912
50	80	21	2.0771197099634
50	83	22	1.960488764504
50	86	23	1.8494249630021
50	89	24	-1.9075773211645
50	92	25	-2.7773249702114
50	95	26	-2.2652001750414
50	98	27	-1.5691025806327
50	101	28	-0.91225269081307
50	104	29	-0.40953446743856
50	108	30	0.90455154409189
50	114	31	1.6261393976799
50	120	32	0.98238942099638
50	125	33	-3.7581409432066
50	128	34	-5.7573292341783e-05
50	131	35	0
50	134	36	0
50	137	37	0
50	140	38	0
50	143	39	0
50	146	40	0
50	149	41	0
50	152	42	0
50	155	43	0
50	158	44	0
50	162	45	2.264203825232
50	168	46	2.0309343403308
50	174	47	1.9560948482738
50	179	48	1.3048863953988
50	182	49	1.0329941503878
50	185	50	2.0324584658956
50	188	51	2.0672707276396
50	191	52	1.9472444265569
50	194	53	1.8528725337423
50	197	54	1.8530836673663
50	200	55	1.8611112720473
50	203	56	1.9390416275477
50	206	57	1.9576863717265
50	209	58	2.0427590482612
50	212	59	1.9079945713072
49	74	19	2.2669921925718
49	77	20	4.199076921563
49	80	21	6.2761966315264
49	83	22	8.2366853960304
49	86	23	10.086110359032
49	89	24	8.178533037868
49	92	25	5.4012080676565
49	95	26	3.1360078926152
49	98	27	1.5669053119825
49	101	28	0.65465262116939
49	104	29	0.24511815373083
49	108	30	1.1496696978227
49	114	31	2.7758090955026
49	120	32	3.758198516499
49	125	33	5.7573292341783e-05
49	128	34	0
49	131	35	0
49	134	36	0
49	137	37	0
49	140	38	0
49	143	39	0
49	146	40	0
49	149	41	0
49	152	42	0
49	155	43	0
49	158	44	0
49	162	45	2.264203825232
49	168	46	4.2951381655628
49	174	47	6.2512330138366
49	179	48	7.5561194092354
49	182	49	8.5891135596232
49	185	50	10.621572025519
49	188	51	12.688842753158
49	191	52	14.636087179715
49	194	53	16.488959713458
49	197	54	18.342043380824
49	200	55	20.203154652871
49	203	56	22.142196280419
49	206	57	24.099882652145
49	209	58	26.142641700407
49	212	59	28.050636271714
44	71	18	73.656625527261
44	74	19	72.970606381202
44	77	20	71.233584321541
44	80	21	68.420978105138
44	83	22	64.540512190081
44	86	23	59.632007666254
44	89	24	54.611366960452
44	92	25	51.12751416706
44	95	26	48.967102612205
44	98	27	47.803786694613
44	101	28	47.271700231506
44	104	29	47.057876834421
44	108	30	46.761081973783
44	114	31	45.68344505111
44	120	32	43.711596305469
44	125	33	42.960603571017
44	128	34	42.960603571017
44	131	35	42.960603571017
44	134	36	42.960603571017
44	137	37	42.960603571017
44	140	38	42.960603571017
44	143	39	42.960603571017
44	146	40	42.960603571017
44	149	41	42.960603571017
44	152	42	42.960603571017
44	155	43	42.960603571017
44	158	44	42.960603571017
44	162	45	42.31607772711
44	168	46	40.497689312322
44	174	47	37.684060548022
44	179	48	33.861365447703
44	182	49	29.8
44	185	50	29.8
44	188	51	29.8
44	191	52	29.8
44	194	53	29.8
44	197	54	29.8
44	200	55	29.8
44	203	56	29.8
44	206	57	29.8
44	209	58	29.8
44	212	59	29.8
43	71	18	50.174761755976
43	74	19	51.272230640388
43	77	20	54.051056381572
43	80	21	58.5505631728
43	83	22	64.758393702399
43	86	23	72.610843615554
43	89	24	80.64268498045
43	92	25	86.216028028646
43	95	26	89.672177135559
43	98	27	91.533208317607
43	101	28	92.384421203473
43	104	29	92.726488223626
43	108	30	93.20129002249
43	114	31	94.925255014022
43	120	32	98.079748085444
43	125	33	99.281159391843
43	128	34	99.281159391843
43	131	35	99.281159391843
43	134	36	99.281159391843
43	137	37	99.281159391843
43	140	38	99.281159391843
43	143	39	99.281159391843
43	146	40	99.281159391843
43	149	41	99.281159391843
43	152	42	99.281159391843
43	155	43	99.281159391843
43	158	44	99.281159391843
43	162	45	100.31222132326
43	168	46	103.22077585562
43	174	47	107.72124045835
43	179	48	113.84671501907
43	182	49	121.55816971368
43	185	50	131.22938826296
43	188	51	143.02350419655
43	191	52	156.72995603752
43	194	53	172.35184584791
43	197	54	189.86442144423
43	200	55	209.23535191342
43	203	56	230.55464299808
43	206	57	253.75448504815
43	209	58	278.96223509968
43	212	59	306.09870355288
vector 153 RSUExampleScenario.node[30].veinsmobility acceleration ETV
vector 154 RSUExampleScenario.node[30].veinsmobility co2emission ETV
55	80	21	50.376373519453
55	83	22	52.225641130247
55	86	23	55.691765162002
55	89	24	60.788500053294
55	92	25	67.582763377364
55	95	26	74.281127134479
55	98	27	79.223748993121
55	101	28	82.606597878091
55	104	29	84.657537984621
55	108	30	85.798512559479
55	114	31	87.065148398321
55	120	32	89.38011970405
55	125	33	91.371290218993
55	128	34	92.316857064818
55	131	35	92.701385289224
55	134	36	92.84126441747
55	137	37	92.891938073845
55	140	38	92.910173209257
55	143	39	92.916697187859
55	146	40	92.919048180057
55	149	41	92.91989421008
55	152	42	92.920197708834
55	155	43	92.920306669697
55	158	44	92.920346006121
55	162	45	93.278434185009
55	168	46	95.027570612829
55	174	47	98.218959857721
55	179	48	99.281159162943
55	182	49	99.281159162943
55	185	50	99.281159162943
55	188	51	99.281159162943
55	191	52	99.281159162943
55	194	53	99.281159162943
55	197	54	99.281159162943
55	200	55	99.281159162943
55	203	56	99.281159162943
55	206	57	99.281159162943
55	209	58	99.281159162943
55	212	59	99.281159162943
55	217	60	100.27227152107
56	80	21	73.530599603629
56	83	22	72.374637001671
56	86	23	70.20799019995
56	89	24	67.022061407364
56	92	25	62.77502097653
56	95	26	58.587926608827
56	98	27	55.498332657764
56	101	28	53.383740493669
56	104	29	52.101714004823
56	108	30	51.38849979471
56	114	31	50.596735719325
56	120	32	49.149665409756
56	125	33	47.905000421326
56	128	34	47.313934041834
56	131	35	47.073568480778
56	134	36	46.986131140664
56	137	37	46.954455437628
56	140	38	46.943056798267
56	143	39	46.938978710684
56	146	40	46.937509123999
56	149	41	46.936980277303
56	152	42	46.936790562624
56	155	43	46.936722452048
56	158	44	46.93669786316
56	162	45	46.712859766077
56	168	46	45.619488377058
56	174	47	43.62457612431
56	179	48	42.9606037141
56	182	49	42.9606037141
56	185	50	42.9606037141
56	188	51	42.9606037141
56	191	52	42.9606037141
56	194	53	42.9606037141
56	197	54	42.9606037141
56	200	55	42.9606037141
56	203	56	42.9606037141
56	206	57	42.9606037141
56	209	58	42.9606037141
56	212	59	42.9606037141
56	217	60	42.341053795694
60	83	22	3.0842326664179
60	86	23	5.0336816662573
60	89	24	6.8462264483072
60	92	25	8.8557208470604
60	95	26	6.9807508558533
60	98	27	4.9360424081926
60	101	28	3.1980048236763
60	104	29	1.8350539895697
60	108	30	1.1776950310208
60	114	31	1.9203361342054
60	120	32	3.368565675682
60	125	33	1.7015577442171
60	128	34	0.74625651552015
60	131	35	0.28236608825403
60	134	36	0.099177470020705
60	137	37	0.036108857033288
60	140	38	0.013143112525337
60	143	39	0.0046893571444464
60	146	40	0.0016907211333716
60	149	41	0.00059037147438571
60	152	42	0.00021971007570218
60	155	43	7.9631193013906e-05
60	158	44	2.7886148869485e-05
60	162	45	1.0123807537433
60	168	46	2.9277813538151
60	174	47	3.5252365293301
60	179	48	0
60	182	49	0
60	185	50	0
60	188	51	0
60	191	52	0
60	194	53	0
60	197	54	0
60	200	55	0
60	203	56	0
60	206	57	0
60	209	58	0
60	212	59	0
60	217	60	2.2388149947469
63	86	23	1.9494489998394
63	89	24	1.81254478205
63	92	25	2.0094943987532
63	95	26	-1.8749699912071
63	98	27	-2.0447084476606
63	101	28	-1.7380375845164
63	104	29	-1.3629508341065
63	108	30	-0.65735895854889
63	114	31	0.74264110318457
63	120	32	1.4482295414766
63	125	33	-1.6670079314649
63	128	34	-0.95530122869694
63	131	35	-0.46389042726612
63	134	36	-0.18318861823333
63	137	37	-0.063068612987417
63	140	38	-0.022965744507951
63	143	39	-0.0084537553808908
63	146	40	-0.0029986360110748
63	149	41	-0.0011003496589859
63	152	42	-0.00037066139868353
63	155	43	-0.00014007888268827
63	158	44	-5.1745044144421e-05
63	162	45	1.0123528675945
63	168	46	1.9154006000718
63	174	47	0.59745517551499
63	179	48	-3.5252365293301
63	182	49	0
63	185	50	0
63	188	51	0
63	191	52	0
63	194	53	0
63	197	54	0
63	200	55	0
63	203	56	0
63	206	57	0
63	209	58	0
63	212	59	0
63	217	60	2.2388149947469
64	86	23	3.7295173709408
64	89	24	4.4604964367894
64	92	25	5.8900776994094
64	95	26	0.973
64	98	27	0.973
64	101	28	0.973
64	104	29	0.973
64	108	30	0.973
64	114	31	1.5469862573385
64	120	32	2.4517386638278
64	125	33	0.973
64	128	34	0.973
64	131	35	0.973
64	134	36	0.973
64	137	37	1.1111930577499
64	140	38	1.1105612801892
64	143	39	1.1102166607127
64	146	40	1.1100803385523
64	149	41	1.1100283229627
64	152	42	1.1100105791875
64	155	43	1.1100038387205
64	158	44	1.1100013448801
64	162	45	1.4059307610118
64	168	46	2.6050522468583
64	174	47	1.7916916150532
64	179	48	0.973
64	182	49	0.973
64	185	50	0.973
64	188	51	0.973
64	191	52	0.973
64	194	53	0.973
64	197	54	0.973
64	200	55	0.973
64	203	56	0.973
64	206	57	0.973
64	209	58	0.973
64	212	59	0.973
64	217	60	2.4269995857468
87	134	36	50.195976336941
87	137	37	51.472997875792
87	140	38	54.46548725441
87	143	39	59.305304099652
87	146	40	65.851451267132
87	149	41	73.604798076286
87	152	42	79.412388574525
87	155	43	83.052529731966
87	158	44	85.045895215901
87	162	45	86.035692650398
87	168	46	87.21628307246
87	174	47	89.555595469097
87	179	48	91.470134719275
87	182	49	92.36173918299
87	185	50	92.720147081988
87	188	51	92.848761521866
87	191	52	92.894723074259
87	194	53	92.911181288072
87	197	54	92.91706177142
87	200	55	92.919184481181
87	203	56	92.919942786285
87	206	57	92.920213710534
87	209	58	92.92031236025
87	212	59	92.920347658236
87	217	60	93.260161163465
88	134	36	73.643364459978
88	137	37	72.845108365409
88	140	38	70.974526850734
88	143	39	67.949195502926
88	146	40	63.85725052517
88	149	41	59.010694570221
88	152	42	55.380415542859
88	155	43	53.104992008003
88	158	44	51.858954961763
88	162	45	51.240240390052
88	168	46	50.502262626224
88	174	47	49.039976892659
88	179	48	47.843213503593
88	182	49	47.285878583662
88	185	50	47.061840632058
88	188	51	46.981444759821
88	191	52	46.952714555829
88	194	53	46.942426656148
88	197	54	46.938750812375
88	200	55	46.937423923241
88	203	56	46.9369499127
88	206	57	46.936780560088
88	209	58	46.936718894929
88	212	59	46.936696830436
88	217	60	46.72428208776
94	137	37	2.5081188002246
94	140	38	4.5047458966815
94	143	39	6.6607574407494
94	146	40	8.6979086793208
94	149	41	8.4973523861004
94	152	42	5.6112893698254
94	155	43	3.2575862152554
94	158	44	1.6586147797761
94	162	45	0.99844876841919
94	168	46	1.9013864013536
94	174	47	3.0949945703057
94	179	48	1.6482768991348
94	182	49	0.69630371630558
94	185	50	0.25368274898752
94	188	51	0.093206297476882
94	191	52	0.032626331584974
94	194	53	0.011631079563003
94	197	54	0.0041175398919935
94	200	55	0.0015187453338301
94	203	56	0.00053234209514422
94	206	57	0.00019137235707097
94	209	58	6.8239011354187e-05
94	212	59	2.4954277125483e-05
94	217	60	1.0253973411695
95	140	38	1.9966270964569
95	143	39	2.1560115440679
95	146	40	2.0371512385714
95	149	41	-0.20055629322041
95	152	42	-2.886063016275
95	155	43	-2.35370315457
95	158	44	-1.5989714354792
95	162	45	-0.66016601135696
95	168	46	0.90293763293442
95	174	47	1.1936081689521
95	179	48	-1.4467176711709
95	182	49	-0.95197318282921
95	185	50	-0.44262096731806
95	188	51	-0.16047645151064
95	191	52	-0.060579965891908
95	194	53	-0.020995252021971
95	197	54	-0.0075135396710094
95	200	55	-0.0025987945581634
95	203	56	-0.00098640323868586
95	206	57	-0.00034096973807325
95	209	58	-0.00012313334571678
95	212	59	-4.3284734228704e-05
95	217	60	1.0253723868924
96	140	38	3.5033793801601
96	143	39	4.9195351926277
96	146	40	5.8606432871344
96	149	41	0.973
96	152	42	0.973
96	155	43	0.973
96	158	44	0.973
96	162	45	0.973
96	168	46	1.6161147288994
96	174	47	2.1523460911995
96	179	48	0.973
96	182	49	0.973
96	185	50	0.973
96	188	51	0.973
96	191	52	1.1110975604488
96	194	53	1.1105022318388
96	197	54	1.1101911742417
96	200	55	1.1100723130706
96	203	56	1.1100255536326
96	206	57	1.1100092160767
96	209	58	1.1100032898249
96	212	59	1.110001203534
96	217	60	1.4129555681592
98	143	39	50.481956168903
98	146	40	52.411414760078
98	149	41	55.859267395165
98	152	42	60.816812345559
98	155	43	67.133631641108
98	158	44	72.323342801198
98	162	45	75.906437820448
98	168	46	78.361025560487
98	174	47	80.685970786794
98	179	48	82.945571256733
98	182	49	84.549816660816
98	185	50	85.573321663011
98	188	51	86.119726692205
98	191	52	86.37414325953
98	194	53	86.483129797125
98	197	54	86.528768717386
98	200	55	86.547214917583
98	203	56	86.554672480704
98	206	57	86.557653166337
98	209	58	86.558831549193
98	212	59	86.559288974693
98	217	60	86.625253272532
99	143	39	73.464600721981
99	146	40	72.258511370496
99	149	41	70.103285874761
99	152	42	67.004363616713
99	155	43	63.055769683442
99	158	44	59.811722158352
99	162	45	57.571957714669
99	168	46	56.037614272894
99	174	47	54.584309344217
99	179	48	53.171850907499
99	182	49	52.169049754947
99	185	50	51.529264848453
99	188	51	51.18771137313
99	191	52	51.02867758298
99	194	53	50.960550957693
99	197	54	50.932022428502
99	200	55	50.920491854208
99	203	56	50.915830190304
99	206	57	50.913966987218
99	209	58	50.913230389386
99	212	59	50.912944456313
99	217	60	50.871710693865
104	146	40	3.0795444959023
104	149	41	4.8157113706942
104	152	42	6.6689098662853
104	155	43	7.2699918730014
104	158	44	5.2108486604467
104	162	45	3.5090874267522
104	168	46	2.5996876244437
104	174	47	3.0285861800467
104	179	48	2.3571038548048
104	182	49	1.5598220699876
104	185	50	0.93876949392415
104	188	51	0.46818690359396
104	191	52	0.19577809010426
104	194	53	0.084643920557969
104	197	54	0.034935744730111
104	200	55	0.014119089162666
104	203	56	0.0055214289735011
104	206	57	0.002244705997403
104	209	58	0.00088606358489691
104	212	59	0.00034543939113108
104	217	60	0.27676054277751
105	149	41	1.736166874792
105	152	42	1.8531984955911
105	155	43	0.60108200671611
105	158	44	-2.0591432125547
105	162	45	-1.7017612336945
105	168	46	-0.90939980230855
105	174	47	0.42889855560306
105	179	48	-0.67148232524192
105	182	49	-0.79728178481723
105	185	50	-0.62105257606343
105	188	51	-0.47058259033019
105	191	52	-0.27240881348971
105	194	53	-0.11113416954629
105	197	54	-0.049708175827858
105	200	55	-0.020816655567446
105	203	56	-0.0085976601891644
105	206	57	-0.0032767229760981
105	209	58	-0.0013586424125061
105	212	59	-0.00054062419376583
105	217	60	0.27641510338638
106	149	41	3.3675986640808
106	152	42	4.4375814804252
106	155	43	2.5493365778457
106	158	44	0.973
106	162	45	0.973
106	168	46	0.973
106	174	47	1.5717136625395
106	179	48	0.973
106	182	49	0.973
106	185	50	0.973
106	188	51	0.973
106	191	52	0.973
106	194	53	0.973
106	197	54	1.1112667855586
106	200	55	1.1106102722772
106	203	56	1.110254913149
106	206	57	1.1101065119959
106	209	58	1.1100424535811
106	212	59	1.1100166189888
106	217	60	1.1417895782755
108	152	42	30.1
108	155	43	31.427847151343
108	158	44	34.690398769061
108	162	45	39.901709920499
108	168	46	47.051473310692
108	174	47	56.042883827902
108	179	48	66.88629306492
108	182	49	79.699106608619
108	185	50	94.487934827821
108	188	51	110.0111863849
108	191	52	126.02260502549
108	194	53	142.96094820478
108	197	54	161.09446446201
108	200	55	180.60564155958
108	203	56	201.66608598807
108	206	57	224.33537532041
108	209	58	248.69297311583
108	212	59	274.98625738276
108	217	60	303.1764048195
109	152	42	29.8
109	155	43	29.8
109	158	44	29.8
109	162	45	29.8
109	168	46	29.8
109	174	47	29.8
109	179	48	29.8
109	182	49	29.8
109	185	50	29.8
109	188	51	29.8
109	191	52	29.8
109	194	53	29.8
109	197	54	29.8
109	200	55	29.8
109	203	56	29.8
109	206	57	29.8
109	209	58	29.8
109	212	59	29.8
109	217	60	29.8
112	155	43	2.3494475005942
112	158	44	4.1138005766019
112	162	45	6.0922026345485
112	168	46	8.0668655214531
112	174	47	9.6949325900411
112	179	48	11.762027611037
112	182	49	13.659728511006
112	185	50	15.320907705757
112	188	51	15.657631365029
112	191	52	16.420605762368
112	194	53	17.427650504749
112	197	54	18.732893993902
112	200	55	20.221764808272
112	203	56	21.787268632576
112	206	57	23.406182094974
112	209	58	25.112466361813
112	212	59	27.15196690289
112	217	60	29.059106926529
113	158	44	1.7643530760077
113	162	45	1.9784020579467
113	168	46	1.9746628869046
113	174	47	1.628067068588
113	179	48	2.0670950209955
113	182	49	1.8977008999698
113	185	50	1.6611791947511
113	188	51	0.33672365927137
113	191	52	0.76297439733904
113	194	53	1.0070447423808
113	197	54	1.3052434891538
113	200	55	1.48887081437
113	203	56	1.5655038243034
113	206	57	1.6189134623986
113	209	58	1.7062842668384
113	212	59	2.0395005410773
113	217	60	1.9071400236385
114	158	44	3.0641064985835
114	162	45	4.3295069213129
114	168	46	5.3866104263376
114	174	47	5.4658073061762
114	179	48	7.6872091999314
114	182	49	8.2516164727623
114	185	50	8.3149372228905
114	188	51	3.4905571382681
114	191	52	5.3305148754977
114	194	53	6.6693398851173
114	197	54	8.5136405744807
114	200	55	10.105316733527
114	203	56	11.336449263893
114	206	57	12.555806894102
114	209	58	14.111023994933
114	212	59	17.614704514255
114	217	60	18.134812479063
115	162	45	30.248156184373
115	168	46	32.241186651458
115	174	47	36.317665043976
115	179	48	42.4231278705
115	182	49	50.417473953425
115	185	50	60.438509484947
115	188	51	72.524269838054
115	191	52	86.53321485308
115	194	53	102.52933324418
115	197	54	120.5045290939
115	200	55	140.49361174044
115	203	56	162.40517300953
115	206	57	186.16736223554
115	209	58	211.88458585297
115	212	59	239.49757435467
115	217	60	269.02660056107
116	162	45	29.8
116	168	46	29.8
116	174	47	29.8
116	179	48	29.8
116	182	49	29.8
116	185	50	29.8
116	188	51	26.6
116	191	52	26.6
116	194	53	26.6
116	197	54	26.6
116	200	55	26.6
116	203	56	26.6
116	206	57	26.6
116	209	58	26.6
116	212	59	26.6
116	217	60	26.6
117	168	46	2.9880975998364
117	174	47	4.9936650216704
117	179	48	6.9495935068754
117	182	49	8.8660219255145
117	185	50	10.926242243455
117	188	51	12.938173753937
117	191	52	14.912367511853
117	194	53	16.872283279152
117	197	54	18.910781492727
117	200	55	20.808011355161
117	203	56	22.740222584173
117	206	57	24.681125090444
117	209	58	26.62357917657
117	212	59	28.390315651529
117	217	60	30.40927396474
118	174	47	2.005567421834
118	179	48	1.9559284852049
118	182	49	1.9164284186391
118	185	50	2.0602203179407
118	188	51	2.0119315104815
118	191	52	1.9741937579168
118	194	53	1.9599157672981
118	197	54	2.0384982135752
118	200	55	1.8972298624343
118	203	56	1.9322112290119
118	206	57	1.9409025062714
118	209	58	1.9424540861254
118	212	59	1.7667364749592
118	217	60	2.0189583132113
119	174	47	3.7760447086732
119	179	48	4.7521455630962
119	182	49	5.6969323290505
119	185	50	7.1826037750862
119	188	51	8.2076153419517
119	191	52	9.2307353901703
119	194	53	10.337073110372
119	197	54	11.937450925354
119	200	55	12.46014571976
119	203	56	13.882584100078
119	206	57	15.234287986682
119	209	58	16.60095530601
119	212	59	16.681571250545
119	217	60	19.970863063323
120	179	48	30.785337641826
120	182	49	33.646455343826
120	185	50	38.287078159779
120	188	51	44.923496820441
120	191	52	53.566409210712
120	194	53	64.065637909147
120	197	54	76.406996258888
120	200	55	90.623007185508
120	203	56	106.95127959541
120	206	57	125.23945126843
120	209	58	145.428266396
120	212	59	167.74460879995
120	217	60	192.1445802523
121	179	48	29.8
121	182	49	29.8
121	185	50	29.8
121	188	51	29.8
121	191	52	29.8
121	194	53	29.8
121	197	54	29.8
121	200	55	29.8
121	203	56	29.8
121	206	57	29.8
121	209	58	29.8
121	212	59	29.8
121	217	60	29.8
122	182	49	3.7066880847726
122	185	50	5.4759809359119
122	188	51	7.5746570918107
122	191	52	9.4795272590689
122	194	53	11.326837054661
122	197	54	13.171341002658
122	200	55	15.173593999888
122	203	56	17.247722100497
122	206	57	19.133434343988
122	209	58	21.200120975334
122	212	59	23.284501600166
122	217	60	25.359441344142
123	185	50	30.125314239811
123	188	51	31.586333120223
123	191	52	34.975863359259
123	194	53	40.17508916472
123	197	54	47.168137695936
123	200	55	55.931334569988
123	203	56	66.613139578934
123	206	57	79.199042375521
123	209	58	93.834971735165
123	212	59	110.49925731126
123	217	60	129.02827454022
124	185	50	29.8
124	188	51	29.8
124	191	52	29.8
124	194	53	29.8
124	197	54	29.8
124	200	55	29.8
124	203	56	29.8
124	206	57	29.8
124	209	58	29.8
124	212	59	29.8
124	217	60	33
125	185	50	1.7692928511393
125	188	51	2.0986761558987
125	191	52	1.9048701672582
125	194	53	1.8473097955924
125	197	54	1.844503947997
125	200	55	2.0022529972298
125	203	56	2.074128100609
125	206	57	1.8857122434909
125	209	58	2.0666866313457
125	212	59	2.0843806248321
125	217	60	2.0749397439766
126	185	50	3.7242863289854
126	188	51	5.3466665330841
126	191	52	5.9977865350822
126	194	53	6.8333784516087
126	197	54	7.811469372006
126	200	55	9.4866143826754
126	203	56	11.037549155969
126	206	57	11.375383686648
126	209	58	13.572082288546
126	212	59	15.096082808049
126	217	60	16.521172225407
127	188	51	2.3796721134973
127	191	52	4.1681859603138
127	194	53	6.0715998836337
127	197	54	7.6912966032452
127	200	55	9.670203458244
127	203	56	11.580570050495
127	206	57	13.51638219433
127	209	58	15.55873086721
127	212	59	17.468403690821
127	217	60	19.393318804299
128	191	52	1.7885138468165
128	194	53	1.9034139233199
128	197	54	1.6196967196115
128	200	55	1.9789068549988
128	203	56	1.9103665922512
128	206	57	1.9358121438348
128	209	58	2.0423486728803
128	212	59	1.9096728236112
128	217	60	1.9249151134771
129	191	52	3.1143839550974
129	194	53	4.2087517501712
129	197	54	4.5253331662394
129	200	55	6.271907831339
129	203	56	7.1437924930355
129	206	57	8.2959530097922
129	209	58	9.8665869921564
129	212	59	10.484595544181
129	217	60	11.715979430245
130	194	53	30.349453602984
130	197	54	32.502779253014
130	200	55	36.614529696785
130	203	56	42.731477917293
130	206	57	50.767092435408
130	209	58	60.73217189579
130	212	59	72.501515651148
130	217	60	86.263077929005
131	194	53	29.8
131	197	54	29.8
131	200	55	29.8
131	203	56	29.8
131	206	57	29.8
131	209	58	29.8
131	212	59	29.8
131	217	60	29.8
132	197	54	50.300139162988
132	200	55	51.900966926975
132	203	56	55.164873025682
132	206	57	60.283823374483
132	209	58	67.156343972156
132	212	59	72.995333850929
132	217	60	76.667711336274
133	197	54	73.578253098744
133	200	55	72.577588286067
133	203	56	70.537346319798
133	206	57	67.337530819893
133	209	58	63.041572384391
133	212	59	59.391665851842
133	217	60	57.096091642598
134	197	54	3.0350712236516
134	200	55	4.9914186488661
134	203	56	7.0355055034776
134	206	57	8.9718932625778
134	209	58	10.757131800469
134	212	59	12.677243635222
134	217	60	14.643933361285
135	200	55	1.9563474252145
135	203	56	2.0440868546115
135	206	57	1.9363877591002
135	209	58	1.7852385378908
135	212	59	1.9201118347538
135	217	60	1.966689726063
136	200	55	3.7156267567059
136	203	56	4.9474287649362
136	206	57	5.7964278547162
136	209	58	6.3720897365165
136	212	59	7.776118040925
136	217	60	9.047339803061
137	200	55	2.7500078170614
137	203	56	4.7761768318277
137	206	57	7.0190957284027
137	209	58	8.4414662399308
137	212	59	5.6939324395367
137	217	60	3.404537897634
138	203	56	30.931865378838
138	206	57	33.792835500275
138	209	58	38.56885847031
138	212	59	45.163422780292
138	217	60	53.550686145793
139	203	56	29.8
139	206	57	29.8
139	209	58	29.8
139	212	59	29.8
139	217	60	29.8
140	203	56	2.0261690147663
140	206	57	2.242918896575
140	209	58	1.4223705115281
140	212	59	-2.7475338003941
140	217	60	-2.2893945419028
141	203	56	3.6827070757006
141	206	57	5.2746734055057
141	209	58	4.4664456644553
141	212	59	0.973
141	217	60	0.973
142	206	57	50.609071478027
142	209	58	52.733121638301
142	212	59	56.425241440538
142	217	60	61.750522540293
143	206	57	73.385141944557
143	209	58	72.057414937591
143	212	59	69.749499961727
143	217	60	66.420708736327
144	206	57	3.7312055229683
144	209	58	5.6994855940304
144	212	59	7.358677089909
144	217	60	9.3245278068361
145	209	58	30.124834287055
145	212	59	31.646669796905
145	217	60	35.211078179827
146	209	58	29.8
146	212	59	29.8
146	217	60	29.8
147	209	58	1.968280071062
147	212	59	1.6591914958786
147	217	60	1.9658507169271
148	209	58	4.1056287979178
148	212	59	4.4442716230019
148	217	60	6.0523920440209
149	209	58	3.3370361456569
149	212	59	5.2486796755218
149	217	60	6.785109469089
150	212	59	1.911643529865
150	217	60	1.5364297935671
151	212	59	3.7946524319338
151	217	60	3.9785576413459
152	212	59	2.523848307469
152	217	60	4.5379741910134
153	217	60	2.0141258835443
154	217	60	3.540297173417
vector 155 RSUExampleScenario.node[31].veinsmobility posx ETV
vector 156 RSUExampleScenario.node[31].veinsmobility posy ETV
55	223	61	103.17788973979
56	223	61	40.524501123933
60	223	61	4.3633035101118
63	223	61	2.1244885153649
64	223	61	3.5621786665909
87	223	61	94.969781363938
88	223	61	45.655611980869
94	223	61	2.7947793704752
95	223	61	1.7693820293056
96	223	61	2.4385895429646
98	223	61	87.445491049908
99	223	61	50.358986526835
104	223	61	1.5855398057396
105	223	61	1.3087792629621
106	223	61	1.6869589675116
115	223	61	300.56145880207
116	223	61	26.6
117	223	61	32.484894815139
118	223	61	2.0756208503991
119	223	61	22.093589772028
120	223	61	218.67006637573
121	223	61	29.8
122	223	61	27.456550202356
123	223	61	149.40632618436
124	223	61	33
125	223	61	2.0971088582138
126	223	61	18.223233264007
127	223	61	21.264779786857
128	223	61	1.8714609825588
129	223	61	12.614989747786
130	223	61	101.96307835196
131	223	61	29.8
132	223	61	78.889788915848
133	223	61	55.707088468778
134	223	61	16.577625464595
135	223	61	1.93369210331
136	223	61	10.056068254359
137	223	61	2.2431144207554
138	223	61	63.991525752229
139	223	61	29.8
140	223	61	-1.1614234768786
141	223	61	0.973
142	223	61	66.628636605751
143	223	61	63.371438098137
144	223	61	11.305738313094
145	223	61	40.978198411347
146	223	61	29.8
147	223	61	1.9812105062581
148	223	61	7.1870556471601
149	223	61	5.0839251282976
150	223	61	-1.7011843407913
151	223	61	0.973
152	223	61	6.75424656537
153	223	61	2.2162723743566
154	223	61	5.0718786129118
155	223	61	30.472736492715
156	223	61	29.8
vector 157 RSUExampleScenario.node[31].veinsmobility speed ETV
[...]
162	313	78	11.521260043382
162	318	79	8.3848884381804
162	322	80	10.327934111774
162	328	81	12.239204623367
162	334	82	14.30190743561
162	339	83	16.231315997011
162	343	84	18.283298255709
161	292	74	29.8
161	297	75	33
161	301	76	33
161	307	77	33
161	313	78	33
161	318	79	33.788653192459
161	322	80	38.797020560619
161	328	81	44.852075331703
161	334	82	51.914291640753
161	339	83	60.063152336105
161	343	84	69.263226390617
160	292	74	149.91486021975
160	297	75	172.82738919034
160	301	76	195.23849065241
160	307	77	213.28343802283
160	313	78	226.82969806621
160	318	79	236.02676880794
160	322	80	244.05100808505
160	328	81	253.73880956308
160	334	82	265.03802190443
160	339	83	278.07581391015
160	343	84	292.79549761126
vector 210 RSUExampleScenario.node[42].veinsmobility posx ETV
vector 211 RSUExampleScenario.node[42].veinsmobility posy ETV
vector 212 RSUExampleScenario.node[42].veinsmobility speed ETV
141	292	74	4.1540820593096
141	297	75	4.9219899644748
141	301	76	5.2832017930669
141	307	77	6.4258883251991
141	313	78	7.7065172428078
141	318	79	9.4842769552109
141	322	80	10.224264137811
141	328	81	12.791188235299
141	334	82	12.527218640256
141	339	83	13.407498248309
141	343	84	14.97729675439
141	349	85	15.888207441743
141	355	86	19.485814692704
140	292	74	1.8348161891475
140	297	75	1.7696957277786
140	301	76	1.5845872222038
140	307	77	1.7152269958868
140	313	78	1.8298905032175
140	318	79	2.0170281731687
140	322	80	1.9145596258971
140	328	81	2.1859461539309
140	334	82	1.8794155760203
140	339	83	1.8284848092636
140	343	84	1.8871056941967
140	349	85	1.8330514687812
140	355	86	2.1358326059347
137	292	74	6.1628662360412
137	297	75	7.9325619638198
137	301	76	9.5171491860236
137	307	77	11.23237618191
137	313	78	13.062266685128
137	318	79	15.079294858296
137	322	80	16.993854484194
137	328	81	19.179800638124
137	334	82	21.059216214145
137	339	83	22.887701023408
137	343	84	24.774806717605
137	349	85	26.607858186386
137	355	86	28.743690792321
133	292	74	37.692276001623
133	297	75	33.91203480252
133	301	76	29.8
133	307	77	29.8
133	313	78	29.8
133	318	79	29.8
133	322	80	29.8
133	328	81	29.8
133	334	82	29.8
133	339	83	29.8
133	343	84	29.8
133	349	85	29.8
133	355	86	29.8
132	292	74	107.70809964937
132	297	75	113.76255236192
132	301	76	122.35900679495
132	307	77	132.7964371266
132	313	78	144.98764357863
132	318	79	159.16826015167
132	322	80	175.35089989124
132	328	81	193.53973995912
132	334	82	213.76118661138
132	339	83	235.81639538738
132	343	84	259.77646790423
132	349	85	285.57187454848
132	355	86	313.34158195356
176	292	74	6.9485677674059
176	297	75	8.017934722629
176	301	76	4.7212094566034
176	307	77	3.2779087298942
176	313	78	10.638261407677
176	318	79	10.793158458692
176	322	80	13.678824450787
176	328	81	13.031579874101
176	334	82	14.555736707432
176	339	83	15.214553323303
176	343	84	15.415688635492
176	349	85	18.653489435107
176	355	86	22.168182975819
175	292	74	1.9109756211611
175	297	75	1.915927591566
175	301	76	0.80063845300861
175	307	77	0.35122424154957
175	313	78	2.1082628909336
175	318	79	1.8715158928884
175	322	80	2.1889936292358
175	328	81	1.8292330067302
175	334	82	1.8842902300088
175	339	83	1.795448513017
175	343	84	1.6564635795029
175	349	85	1.9285913000838
175	355	86	2.1689820232312
172	292	74	11.219110620442
172	297	75	13.135038212008
172	301	76	13.935676665016
172	307	77	14.286900906566
172	313	78	16.3951637975
172	318	79	18.266679690388
172	322	80	20.455673319624
172	328	81	22.284906326354
172	334	82	24.169196556363
172	339	83	25.96464506938
172	343	84	27.621108648883
172	349	85	29.549699948966
172	355	86	31.718681972198
171	292	74	29.8
171	297	75	29.8
171	301	76	29.8
171	307	77	26.6
171	313	78	26.6
171	318	79	26.6
171	322	80	26.6
171	328	81	26.6
171	334	82	26.6
171	339	83	26.6
171	343	84	26.6
171	349	85	26.6
171	355	86	26.6
170	292	74	63.132756619596
170	297	75	75.42893656697
170	301	76	89.288377550069
170	307	77	103.26325532334
170	313	78	118.67660343077
170	318	79	136.12637939907
170	322	80	155.59509540245
170	328	81	177.10113886845
170	334	82	200.43210295121
170	339	83	225.54278996909
170	343	84	252.40023132195
170	349	85	281.03219843238
170	355	86	311.84057311118
106	292	74	4.8713728415242
106	297	75	8.1645658526991
106	301	76	9.4457828098042
106	307	77	6.9178746757761
106	313	78	0.973
106	318	79	0.973
106	322	80	3.5605675193684
106	328	81	0.973
106	334	82	6.2750319156538
106	339	83	8.2644202402692
106	343	84	10.171928870943
106	349	85	11.300995151812
106	355	86	11.320812209693
105	292	74	1.0698585072532
105	297	75	1.8704804309178
105	301	76	1.9253362205531
105	307	77	1.1336718451098
105	313	78	-3.5380018832379
105	318	79	-2.7662588334865
105	322	80	0.66969087785219
105	328	81	-1.3358081773476
105	334	82	1.6325079172943
105	339	83	1.9566115753911
105	343	84	2.1371340180282
105	349	85	2.0885629741824
105	355	86	1.838684771196
104	292	74	11.793894468897
104	297	75	13.664374899814
104	301	76	15.589711120368
104	307	77	16.723382965477
104	313	78	13.185381082239
104	318	79	10.419122248753
104	322	80	11.088813126605
104	328	81	9.7530049492576
104	334	82	11.385512866552
104	339	83	13.342124441943
104	343	84	15.479258459971
104	349	85	17.567821434154
104	355	86	19.40650620535
99	292	74	33
99	297	75	33
99	301	76	33
99	307	77	33
99	313	78	33
99	318	79	33
99	322	80	33
99	328	81	33.463754320801
99	334	82	39.016586972436
99	339	83	45.598769392665
99	343	84	53.2898252585
99	349	85	62.100166733917
99	355	86	71.934205852966
98	292	74	144.06878982928
98	297	75	156.93326013692
98	301	76	171.62229097272
98	307	77	188.19515347816
98	313	78	202.90045996411
98	318	79	214.31270973309
98	322	80	224.92936271235
98	328	81	235.49261303589
98	334	82	244.40230396748
98	339	83	254.93348477262
98	343	84	267.23881068651
98	349	85	281.33494067943
98	355	86	297.06893852326
vector 213 RSUExampleScenario.node[43].veinsmobility posx ETV
vector 214 RSUExampleScenario.node[43].veinsmobility posy ETV
vector 215 RSUExampleScenario.node[42].veinsmobility acceleration ETV
vector 216 RSUExampleScenario.node[42].veinsmobility co2emission ETV
vector 217 RSUExampleScenario.node[43].veinsmobility speed ETV
181	292	74	4.2388943559309
181	297	75	5.4187439189221
181	301	76	6.5263371852194
181	307	77	8.0076751016156
181	313	78	8.6598884981981
181	318	79	10.287323992681
181	322	80	11.934496190813
181	328	81	12.196903939189
181	334	82	12.661573096104
181	339	83	14.857910120748
181	343	84	15.811001284341
181	349	85	18.489483312639
181	355	86	17.613028606057
181	360	87	20.986581210337
181	364	88	22.083782623243
180	292	74	1.9175884701987
180	297	75	1.9881276877946
180	301	76	1.9926777625456
180	307	77	2.0956255848752
180	313	78	1.9437658447237
180	318	79	2.0553558056639
180	322	80	2.1269890226028
180	328	81	1.919358239749
180	334	82	1.792553147194
180	339	83	1.9601345475833
180	343	84	1.9016924934648
180	349	85	2.0808603620483
180	355	86	1.7660582594015
180	360	87	2.0135826708214
180	364	88	1.9494193978724
179	292	74	6.0896581953749
179	297	75	8.0777858831696
179	301	76	10.070463645715
179	307	77	12.16608923059
179	313	78	14.109855075314
179	318	79	16.165210880978
179	322	80	18.292199903581
179	328	81	20.21155814333
179	334	82	22.004111290524
179	339	83	23.964245838107
179	343	84	25.865938331572
179	349	85	27.94679869362
179	355	86	29.712856953022
179	360	87	31.726439623843
179	364	88	33.675859021715
174	292	74	29.8
174	297	75	29.8
174	301	76	29.8
174	307	77	26.6
174	313	78	26.6
174	318	79	26.6
174	322	80	26.6
174	328	81	26.6
174	334	82	26.6
174	339	83	26.6
174	343	84	26.6
174	349	85	26.6
174	355	86	26.6
174	360	87	26.6
174	364	88	26.6
173	292	74	39.798430116292
173	297	75	46.935585333005
173	301	76	56.114581665436
173	307	77	67.291992118074
173	313	78	80.585587345288
173	318	79	95.784428832671
173	322	80	113.10393473859
173	328	81	132.49048664762
173	334	82	153.69979213326
173	339	83	176.73493201563
173	343	84	201.71721330564
173	349	85	228.78191622309
173	355	86	257.72860564269
173	360	87	288.58654954251
173	364	88	321.3789028508
vector 218 RSUExampleScenario.node[43].veinsmobility acceleration ETV
vector 219 RSUExampleScenario.node[43].veinsmobility co2emission ETV
142	292	74	98.016670401524
142	297	75	99.281159365166
142	301	76	100.27804566751
142	307	77	103.00286732901
142	313	78	107.50119206317
142	318	79	113.66613297827
142	322	80	122.02675133006
142	328	81	132.57386247481
142	334	82	145.12670474749
142	339	83	159.79391096438
142	343	84	176.49164897392
142	349	85	194.95278829806
142	355	86	212.87472310396
142	360	87	226.36231282333
142	364	88	235.53709147481
142	370	89	243.1569111641
143	292	74	43.751025668318
143	297	75	42.960603587692
143	301	76	42.337443878508
143	307	77	40.633922735443
143	313	78	37.821631787633
143	318	79	33.97008320696
143	322	80	33
143	328	81	33
143	334	82	33
143	339	83	33
143	343	84	33
143	349	85	33
143	355	86	33
143	360	87	33
143	364	88	33.490808216637
143	370	89	38.238193479026
149	292	74	3.8742443655679
149	297	75	4.7063409520725e-05
149	301	76	2.2315202271515
149	307	77	4.1843403882554
149	313	78	6.2216942084741
149	318	79	8.2252584058579
149	322	80	9.3543531413273
149	328	81	11.444900083469
149	334	82	13.517679721826
149	339	83	15.570434427035
149	343	84	17.439806306217
149	349	85	19.232969466091
149	355	86	15.960889050776
149	360	87	11.477895736686
149	364	88	8.2540713197682
149	370	89	9.8077349202721
150	292	74	0.66688747605993
150	297	75	-3.8741973021584
150	301	76	2.231473163742
150	307	77	1.9528201611039
150	313	78	2.0373538202187
150	318	79	2.0035641973838
150	322	80	1.1290947354694
150	328	81	2.0905469421414
150	334	82	2.0727796383575
150	339	83	2.0527547052084
150	343	84	1.8693718791823
150	349	85	1.7931631598738
150	355	86	-3.272080415315
150	360	87	-4.4829933140893
150	364	88	-3.2238244169182
150	370	89	1.5536636005039
151	292	74	1.9249336162076
151	297	75	0.973
151	301	76	2.4187532518991
151	307	77	3.287895166214
151	313	78	4.4872489070143
151	318	79	5.5298331718788
151	322	80	4.1823002070429
151	328	81	7.566779195235
151	334	82	8.7428939764443
151	339	83	9.9127462621628
151	343	84	10.298255563853
151	349	85	11.006592286142
151	355	86	0.973
151	360	87	0.973
151	364	88	0.973
151	370	89	5.3426163326343
177	292	74	55.698273322502
177	297	75	60.747761758005
177	301	76	67.460640224549
177	307	77	75.807275619882
177	313	78	85.694590949813
177	318	79	93.952224905419
177	322	80	101.31837371309
177	328	81	110.39696774759
177	334	82	119.33709418389
177	339	83	130.12458694901
177	343	84	141.63923294092
177	349	85	151.58437160643
177	355	86	160.01045549213
177	360	87	168.03111139111
177	364	88	178.19288848023
177	370	89	190.56783299606
178	292	74	70.203922000138
178	297	75	67.047526594526
178	301	76	62.851359196409
178	307	77	57.633943224344
178	313	78	51.453460373486
178	318	79	46.291678499616
178	322	80	41.687045048223
178	328	81	36.011232533364
178	334	82	33
178	339	83	33
178	343	84	33
178	349	85	33
178	355	86	33
178	360	87	33
178	364	88	33
178	370	89	29.8
182	292	74	5.0075343191148
182	297	75	6.745027310456
182	301	76	8.8558691004304
182	307	77	10.671674781212
182	313	78	12.164067399168
182	318	79	7.735250195478
182	322	80	9.6754522816291
182	328	81	11.263446631184
182	334	82	9.7750718347466
182	339	83	11.704623054754
182	343	84	10.843561124881
182	349	85	9.2609597156823
182	355	86	7.7646148286335
182	360	87	8.9421244662781
182	364	88	11.162735952746
182	370	89	13.334074394229
183	292	74	30.248041316012
183	297	75	32.133704903738
183	301	76	36.107840098237
183	307	77	42.055920474477
183	313	78	49.853848150882
183	318	79	59.716541158764
183	322	80	71.669877625336
183	328	81	85.568964931014
183	334	82	101.37927734166
183	339	83	117.7697836894
183	343	84	133.1008455927
183	349	85	146.48746305156
183	355	86	157.92963606597
183	360	87	166.89069796927
183	364	88	172.67075699425
183	370	89	179.62959172085
184	292	74	29.8
184	297	75	29.8
184	301	76	29.8
184	307	77	29.8
184	313	78	29.8
184	318	79	29.8
184	322	80	29.8
184	328	81	29.8
184	334	82	29.8
184	339	83	29.8
184	343	84	29.8
184	349	85	29.8
184	355	86	29.8
184	360	87	29.8
184	364	88	29.8
184	370	89	33
185	292	74	1.9641495092632
185	297	75	1.7374929913413
185	301	76	2.1108417899744
185	307	77	1.8158056807821
185	313	78	1.4923926179557
185	318	79	-4.4288172036902
185	322	80	1.9402020861511
185	328	81	1.5879943495551
185	334	82	-1.4883747964376
185	339	83	1.9295512200077
185	343	84	-0.86106192987376
185	349	85	-1.5826014091983
185	355	86	-1.4963448870487
185	360	87	1.1775096376445
185	364	88	2.2206114864675
185	370	89	2.1713384414837
186	292	74	3.7335296993478
186	297	75	4.2881126896975
186	301	76	6.106462005219
186	307	77	6.4070960609189
186	313	78	6.2380718107215
186	318	79	0.973
186	322	80	6.1845492260889
186	328	81	6.0959483142075
186	334	82	0.973
186	339	83	7.2656670830203
186	343	84	0.973
186	349	85	0.973
186	355	86	0.973
186	360	87	4.1450159259275
186	364	88	7.7509169369328
186	370	89	8.9498664055647
187	297	75	50.900164363098
187	301	76	53.4104541284
187	307	77	57.669467025371
187	313	78	63.629740569097
187	318	79	71.17085014555
187	322	80	80.329147743156
187	328	81	90.079066965664
187	334	82	96.546750892302
187	339	83	99.205747594814
187	343	84	101.07338460737
187	349	85	104.63675596299
187	355	86	109.85257444461
187	360	87	116.59853272357
187	364	88	125.16910266667
187	370	89	135.70979322567
188	297	75	73.203182077378
188	301	76	71.634019738825
188	307	77	68.971744359417
188	313	78	65.246024364232
188	318	79	60.532136229946
188	322	80	54.807356615231
188	328	81	48.712758987749
188	334	82	44.669860763157
188	339	83	43.007742890714
188	343	84	41.840208878105
188	349	85	39.612437963527
188	355	86	36.351579762275
188	360	87	33.01011446507
188	364	88	33
188	370	89	33
189	297	75	2.8262097484828
189	301	76	4.8653471559496
189	307	77	6.8831484720647
189	313	78	8.6428620225913
189	318	79	10.851164231456
189	322	80	12.859045783386
189	328	81	14.751874281305
189	334	82	16.400506347744
189	339	83	16.400506347744
189	343	84	14.456061903299
189	349	85	12.511617458855
189	355	86	10.56717301441
189	360	87	7.0893952366327
189	364	88	5.8249535514111
189	370	89	7.8747777771809
190	301	76	2.0391374074668
190	307	77	2.0178013161151
190	313	78	1.7597135505266
190	318	79	2.2083022088651
190	322	80	2.0078815519297
190	328	81	1.8928284979193
190	334	82	1.6486320664384
190	339	83	0
190	343	84	-1.9444444444444
190	349	85	-1.9444444444444
190	355	86	-1.9444444444444
190	360	87	-3.4777777777778
190	364	88	-1.2644416852216
190	370	89	2.0498242257698
191	301	76	3.7463315187345
191	307	77	4.8193756483695
191	313	78	5.2519324361261
191	318	79	7.5264913245111
191	322	80	8.1492315785884
191	328	81	8.8475786918082
191	334	82	8.8249307979739
191	339	83	2.3086762363309
191	343	84	0.973
191	349	85	0.973
191	355	86	0.973
191	360	87	0.973
191	364	88	0.973
191	370	89	5.4251911885848
192	301	76	3.8820259311836
192	307	77	5.9892301088263
192	313	78	7.8629019855609
192	318	79	9.8015710222808
192	322	80	11.647376126667
192	328	81	10.097022099412
192	334	82	5.6047803700022
192	339	83	1.1164937246107
192	343	84	3.1249402909694
192	349	85	5.1691285763184
192	355	86	6.919633547891
192	360	87	7.7837804187406
192	364	88	9.4543860966028
192	370	89	11.344092768125
193	307	77	30.77223845518
193	313	78	33.572547955107
193	318	79	38.464193230795
193	322	80	45.415508844239
193	328	81	54.327581345023
193	334	82	65.065886886457
193	339	83	77.754779663476
193	343	84	92.410700144359
193	349	85	109.20345912362
193	355	86	128.0170995855
193	360	87	148.93960844441
193	364	88	171.9019788253
193	370	89	196.92343081253
194	307	77	29.8
194	313	78	29.8
194	318	79	29.8
194	322	80	29.8
194	328	81	29.8
194	334	82	29.8
194	339	83	26.6
194	343	84	26.6
194	349	85	26.6
194	355	86	26.6
194	360	87	26.6
194	364	88	26.6
194	370	89	26.6
195	307	77	2.1072041776427
195	313	78	1.8736718767346
195	318	79	1.9386690367199
195	322	80	1.8458051043865
195	328	81	-1.5503540272557
195	334	82	-4.4922417294095
195	339	83	-4.4882866453915
195	343	84	2.0084465663588
195	349	85	2.0441882853489
195	355	86	1.7505049715727
195	360	87	0.86414687084955
195	364	88	1.6706056778622
195	370	89	1.889706671522
196	307	77	4.4603149411434
196	313	78	5.0847462350498
196	318	79	6.249298413049
196	322	80	6.999044701214
196	328	81	0.973
196	334	82	0.973
196	339	83	0.973
196	343	84	2.7761485567209
196	349	85	3.918685970873
196	355	86	4.3936077634464
196	360	87	3.1501006473271
196	364	88	5.4506343343508
196	370	89	6.9584175530718
197	313	78	3.7653753825567
197	318	79	5.8525310327333
197	322	80	7.9000204145733
197	328	81	9.7118074367136
197	334	82	11.611216791895
197	339	83	13.450269553579
197	343	84	15.605934575876
197	349	85	17.679758558738
197	355	86	19.783070945175
197	360	87	21.835004470997
197	364	88	23.876308717831
197	370	89	25.81154389097
198	318	79	30.124873496691
198	322	80	31.61448564564
198	328	81	35.005191196429
198	334	82	40.43767063004
198	339	83	47.901369896712
198	343	84	57.459118865863
198	349	85	69.046554040091
198	355	86	82.59191543634
198	360	87	98.109305033977
198	364	88	115.6052965866
198	370	89	133.56646221247
199	318	79	29.8
199	322	80	29.8
199	328	81	29.8
199	334	82	29.8
199	339	83	29.8
199	343	84	29.8
199	349	85	29.8
199	355	86	29.8
199	360	87	29.8
199	364	88	29.8
199	370	89	29.8
200	318	79	2.0871556501766
200	322	80	2.04748938184
200	328	81	1.8117870221403
200	334	82	1.8994093551813
200	339	83	1.8390527616837
200	343	84	2.1556650222978
200	349	85	2.0738239828614
200	355	86	2.1033123864373
200	360	87	2.0519335258217
200	364	88	2.0413042468345
200	370	89	1.9352351731388
201	318	79	4.3546940286794
201	322	80	5.4348688360617
201	328	81	5.9036876921869
201	334	82	7.1298609836806
201	339	83	7.9449421822521
201	343	84	10.321460666313
201	349	85	11.30957299187
201	355	86	12.807583411468
201	360	87	13.922763592847
201	364	88	15.265248732438
201	370	89	15.982038407602
202	322	80	2.3545583322838
202	328	81	4.2494300670208
202	334	82	6.3314980829655
202	339	83	8.3326897164279
202	343	84	10.585048423159
202	349	85	12.44899183221
202	355	86	14.459375620189
202	360	87	16.450780984502
202	364	88	18.191904893905
202	370	89	18.768218574744
203	328	81	1.894871734737
203	334	82	2.0820680159447
203	339	83	2.0011916334624
203	343	84	2.2523587067309
203	349	85	1.8639434090513
203	355	86	2.0103837879794
203	360	87	1.9914053643122
203	364	88	1.7411239094036
203	370	89	0.5763136808388
204	328	81	3.2626432826963
204	334	82	4.6158876553012
204	339	83	5.5841660217694
204	343	84	7.4759420987098
204	349	85	7.480983203001
204	355	86	9.0923919019371
204	360	87	10.210062434087
204	364	88	10.17726795884
204	370	89	5.232846305302
205	334	82	30.349964198992
205	339	83	32.493913463526
205	343	84	36.544060479937
205	349	85	42.476240525032
205	355	86	50.325618028542
205	360	87	60.092160228311
205	364	88	71.809075573012
205	370	89	85.440743647326
206	334	82	29.8
206	339	83	29.8
206	343	84	29.8
206	349	85	29.8
206	355	86	29.8
206	360	87	29.8
206	364	88	29.8
206	370	89	29.8
207	339	83	3.0364857330425
207	343	84	4.8825771913813
207	349	85	6.7810804011924
207	355	86	8.7163008031012
207	360	87	10.634204473579
207	364	88	12.55447389417
207	370	89	14.536745383758
208	343	84	1.8460914583388
208	349	85	1.8985032098112
208	355	86	1.9352204019087
208	360	87	1.9179036704777
208	364	88	1.9202694205916
208	370	89	1.9822714895871
209	343	84	3.5285861415348
209	349	85	4.5685350183962
209	355	86	5.6568278123118
209	360	87	6.6493738141189
209	364	88	7.7084458033984
209	370	89	9.0396296680876
210	349	85	30.785145439803
210	355	86	33.534450763553
210	360	87	38.166632433329
210	364	88	44.738086966952
210	370	89	53.201483060906
211	349	85	29.8
211	355	86	29.8
211	360	87	29.8
211	364	88	29.8
211	370	89	29.8
212	355	86	3.5343954183276
212	360	87	5.541038829237
212	364	88	7.4013078950926
212	370	89	9.2613085000355
213	360	87	30.125970365429
213	364	88	31.602213907559
213	370	89	35.086457340554
214	360	87	29.8
214	364	88	29.8
214	370	89	29.8
215	360	87	2.0066434109095
215	364	88	1.8602690658555
215	370	89	1.8600006049429
216	360	87	4.0726681295917
216	364	88	4.822683298167
216	370	89	5.7816230545562
217	364	88	2.327012674638
217	370	89	4.4302636853756
218	370	89	2.1032510107376
219	370	89	3.5773761521822

