file 124583 1652227279                                          
version 2
run Default-0-20220510-17:00:06-261187
attr configname Default
attr datetime 20220510-17:00:06
attr experiment Default
attr inifile omnetpp.ini
attr iterationvars ""
attr iterationvarsf ""
attr measurement ""
attr network RSUExampleScenario
attr processid 261187
attr repetition 0
attr replication #0
attr resultdir results
attr runnumber 0
attr seedset 0
param *.playgroundSizeX 500m
param *.playgroundSizeY 200m
param *.playgroundSizeZ 50m
param *.annotations.draw true
param *.obstacles.obstacles "xmldoc(\"config.xml\", \"//AnalogueModel[@type='SimpleObstacleShadowing']/obstacles\")"
param *.manager.updateInterval 1s
param *.manager.host "\"localhost\""
param *.manager.port 9999
param *.manager.autoShutdown true
param *.manager.launchConfig "xmldoc(\"highway.launchd.xml\")"
param *.manager.moduleType "\"*=org.car2x.veins.nodes.Car\""
param *.manager.moduleName "\"*=node\""
param *.manager.trafficLightModuleType "\"org.car2x.veins.nodes.TrafficLight\""
param *.manager.trafficLightModuleName "\"rampMeter\""
param *.manager.trafficLightModuleDisplayString default
param *.manager.trafficLightFilter "\"rampMeter\""
param *.rampMeter[*].mobility.x 0
param *.rampMeter[*].mobility.y 0
param *.rampMeter[*].mobility.z 3
param *.rampMeter[*].applType "\"smarthighway.RampMeterControl.RampMeterController\""
param *.rampMeter[*].appl.headerLength "80 bit"
param *.rampMeter[*].appl.sendBeacons false
param *.rampMeter[*].appl.dataOnSch false
param *.rampMeter[*].appl.beaconInterval 1s
param *.rampMeter[*].appl.beaconUserPriority 7
param *.rampMeter[*].appl.dataUserPriority 5
param *.rampMeter[*].logicType "\"org.car2x.veins.modules.world.traci.trafficLight.logics.TraCITrafficLightSimpleLogic\""
param *.rampMeter[*].nic.phy80211p.antennaOffsetZ "0 m"
param *.rsu[0].mobility.x 150
param *.rsu[0].mobility.y 20
param *.rsu[0].mobility.z 3
param *.rsu[*].applType "\"RSUApp\""
param *.rsu[*].appl.headerLength "80 bit"
param *.rsu[*].appl.sendBeacons false
param *.rsu[*].appl.dataOnSch false
param *.rsu[*].appl.beaconInterval 1s
param *.rsu[*].appl.beaconUserPriority 7
param *.rsu[*].appl.dataUserPriority 5
param *.rsu[*].nic.phy80211p.antennaOffsetZ "0 m"
param *.connectionManager.sendDirect true
param *.connectionManager.maxInterfDist 2600m
param *.connectionManager.drawMaxIntfDist false
param *.**.nic.mac1609_4.useServiceChannel false
param *.**.nic.mac1609_4.txPower 20mW
param *.**.nic.mac1609_4.bitrate 6Mbps
param *.**.nic.phy80211p.minPowerLevel -110dBm
param *.**.nic.phy80211p.useNoiseFloor true
param *.**.nic.phy80211p.noiseFloor -98dBm
param *.**.nic.phy80211p.decider "xmldoc(\"config.xml\")"
param *.**.nic.phy80211p.analogueModels "xmldoc(\"config.xml\")"
param *.**.nic.phy80211p.usePropagationDelay true
param *.**.nic.phy80211p.antenna "xmldoc(\"antenna.xml\", \"/root/Antenna[@id='monopole']\")"
param *.*node[*].nic.phy80211p.antennaOffsetY "0 m"
param *.*node[*].nic.phy80211p.antennaOffsetZ "1.895 m"
param *.node[*].applType "\"CarApp\""
param *.bad_node[*].applType "\"BadCarApp\""
param *.*node[*].appl.headerLength "80 bit"
param *.*node[*].appl.sendBeacons false
param *.*node[*].appl.dataOnSch false
param *.*node[*].appl.beaconInterval 1s
param *.*node[*].veinsmobility.x 0
param *.*node[*].veinsmobility.y 0
param *.*node[*].veinsmobility.z 0
param *.*node[*].veinsmobility.setHostSpeed false
param *.*node[*0].veinsmobility.accidentCount 1
param *.*node[*0].veinsmobility.accidentStart 73s
param *.*node[*0].veinsmobility.accidentDuration 50s

vector 0 RSUExampleScenario.node[0].veinsmobility posx ETV
vector 1 RSUExampleScenario.node[0].veinsmobility posy ETV
vector 2 RSUExampleScenario.node[1].veinsmobility posx ETV
vector 3 RSUExampleScenario.node[1].veinsmobility posy ETV
vector 4 RSUExampleScenario.node[0].veinsmobility speed ETV
vector 5 RSUExampleScenario.node[1].veinsmobility speed ETV
vector 6 RSUExampleScenario.node[2].veinsmobility posx ETV
vector 7 RSUExampleScenario.node[2].veinsmobility posy ETV
vector 8 RSUExampleScenario.node[3].veinsmobility posx ETV
vector 9 RSUExampleScenario.node[3].veinsmobility posy ETV
vector 10 RSUExampleScenario.node[0].veinsmobility acceleration ETV
vector 11 RSUExampleScenario.node[0].veinsmobility co2emission ETV
vector 12 RSUExampleScenario.node[1].veinsmobility acceleration ETV
vector 13 RSUExampleScenario.node[1].veinsmobility co2emission ETV
vector 14 RSUExampleScenario.node[2].veinsmobility speed ETV
vector 15 RSUExampleScenario.node[3].veinsmobility speed ETV
vector 16 RSUExampleScenario.node[2].veinsmobility acceleration ETV
vector 17 RSUExampleScenario.node[2].veinsmobility co2emission ETV
vector 18 RSUExampleScenario.node[3].veinsmobility acceleration ETV
vector 19 RSUExampleScenario.node[3].veinsmobility co2emission ETV
vector 20 RSUExampleScenario.node[4].veinsmobility posx ETV
vector 21 RSUExampleScenario.node[4].veinsmobility posy ETV
vector 22 RSUExampleScenario.node[4].veinsmobility speed ETV
vector 23 RSUExampleScenario.node[5].veinsmobility posx ETV
vector 24 RSUExampleScenario.node[5].veinsmobility posy ETV
vector 25 RSUExampleScenario.node[4].veinsmobility acceleration ETV
vector 26 RSUExampleScenario.node[4].veinsmobility co2emission ETV
vector 27 RSUExampleScenario.node[5].veinsmobility speed ETV
vector 28 RSUExampleScenario.node[5].veinsmobility acceleration ETV
vector 29 RSUExampleScenario.node[5].veinsmobility co2emission ETV
vector 30 RSUExampleScenario.node[6].veinsmobility posx ETV
vector 31 RSUExampleScenario.node[6].veinsmobility posy ETV
vector 32 RSUExampleScenario.node[6].veinsmobility speed ETV
vector 33 RSUExampleScenario.node[6].veinsmobility acceleration ETV
vector 34 RSUExampleScenario.node[6].veinsmobility co2emission ETV
vector 35 RSUExampleScenario.node[7].veinsmobility posx ETV
vector 36 RSUExampleScenario.node[7].veinsmobility posy ETV
vector 37 RSUExampleScenario.node[7].veinsmobility speed ETV
vector 38 RSUExampleScenario.node[8].veinsmobility posx ETV
vector 39 RSUExampleScenario.node[8].veinsmobility posy ETV
vector 40 RSUExampleScenario.node[7].veinsmobility acceleration ETV
vector 41 RSUExampleScenario.node[7].veinsmobility co2emission ETV
vector 42 RSUExampleScenario.node[8].veinsmobility speed ETV
11	6202 368 15 66 3 17 15 4.1022822932311 21.969407905285 185.28047268652 2726.9803732879
10	6570 367 15 66 3 17 15 1.730716728759 2.0820189485466 29.131301956563 56.704689671409
4	6937 372 9 66 2 17 16 4.1428915371655 33.274193493729 298.71934036252 6857.5490605831
1	7309 210 4 66 1 17 17 29.8 29.8 506.6 15096.68
0	7519 394 4 66 1 17 17 31.174628598893 315.62040621767 2288.1113761838 444159.3677482
vector 43 RSUExampleScenario.node[9].veinsmobility posx ETV
vector 44 RSUExampleScenario.node[9].veinsmobility posy ETV
vector 45 RSUExampleScenario.node[8].veinsmobility acceleration ETV
vector 46 RSUExampleScenario.node[8].veinsmobility co2emission ETV
vector 47 RSUExampleScenario.node[10].veinsmobility posx ETV
vector 48 RSUExampleScenario.node[10].veinsmobility posy ETV
vector 49 RSUExampleScenario.node[9].veinsmobility speed ETV
vector 50 RSUExampleScenario.node[9].veinsmobility acceleration ETV
vector 51 RSUExampleScenario.node[9].veinsmobility co2emission ETV
vector 52 RSUExampleScenario.node[10].veinsmobility speed ETV
vector 53 RSUExampleScenario.node[11].veinsmobility posx ETV
vector 54 RSUExampleScenario.node[11].veinsmobility posy ETV
vector 55 RSUExampleScenario.node[12].veinsmobility posx ETV
vector 56 RSUExampleScenario.node[12].veinsmobility posy ETV
vector 57 RSUExampleScenario.node[10].veinsmobility acceleration ETV
vector 58 RSUExampleScenario.node[10].veinsmobility co2emission ETV
vector 59 RSUExampleScenario.node[11].veinsmobility speed ETV
vector 60 RSUExampleScenario.node[12].veinsmobility speed ETV
26	9053 372 32 83 8 22 15 3.9770437142121 20.696784915447 185.40442897643 2721.3534666484
25	9425 372 32 83 8 22 15 1.7992561084381 2.1517473811447 29.523682138452 58.306118241057
22	9797 394 29 83 7 22 16 3.6955023822781 33.21918452073 296.171179116 6834.3118191832
21	10191 234 26 83 6 22 17 29.8 29.8 506.6 15096.68
20	10425 421 26 83 6 22 17 30.755579793139 312.87129882625 2243.046020329 430726.7346863
vector 61 RSUExampleScenario.node[11].veinsmobility acceleration ETV
vector 62 RSUExampleScenario.node[11].veinsmobility co2emission ETV
vector 63 RSUExampleScenario.node[12].veinsmobility acceleration ETV
vector 64 RSUExampleScenario.node[12].veinsmobility co2emission ETV
vector 65 RSUExampleScenario.node[13].veinsmobility posx ETV
vector 66 RSUExampleScenario.node[13].veinsmobility posy ETV
19	11242 464 23 89 5 24 20 0.70317832590912 15.509856063696 145.29681775717 1457.6659999668
18	11706 487 23 89 5 24 20 -4.5 2.249932359024 16.838435027746 122.60215371835
15	12193 516 20 89 4 24 21 2.7380168723571 23.191140494621 293.30095774146 4750.549047782
9	12709 331 15 89 3 24 22 29.8 75.755442140665 826.01450557318 34497.470509013
8	13040 519 15 89 3 24 22 30.250911514827 303.18273599585 3389.0840613508 710645.82742832
29	13559 374 38 89 10 24 15 3.8022585481321 20.715945507886 173.51338621686 2456.6775360788
28	13933 375 38 89 10 24 15 1.7732679642015 2.2327276842995 29.515787431104 58.337009406328
27	14308 399 35 89 9 24 16 2.5173213501673 32.033108781272 275.7146091841 6044.0004234672
24	14707 236 32 89 8 24 17 29.8 29.8 506.6 15096.68
23	14943 417 32 89 8 24 17 30.125831785433 291.71821637116 2072.1308652537 368501.51090372
vector 67 RSUExampleScenario.node[13].veinsmobility speed ETV
vector 68 RSUExampleScenario.node[13].veinsmobility acceleration ETV
vector 69 RSUExampleScenario.node[13].veinsmobility co2emission ETV
vector 70 RSUExampleScenario.node[14].veinsmobility posx ETV
vector 71 RSUExampleScenario.node[14].veinsmobility posy ETV
34	15681 375 47 98 13 27 15 3.7517450063919 21.471251950685 184.90437210959 2721.5115550768
33	16056 373 47 98 13 27 15 1.7899479142204 2.1710082507134 29.858439933451 59.621302720788
32	16429 400 44 98 12 27 16 3.2912820470421 33.149721980493 292.69494947393 6727.3204631782
31	16829 238 41 98 11 27 17 29.8 29.8 506.6 15096.68
30	17067 422 41 98 11 27 17 30.46797817649 308.75129026538 2199.2863284905 415858.02597584
vector 72 RSUExampleScenario.node[14].veinsmobility speed ETV
vector 73 RSUExampleScenario.node[15].veinsmobility posx ETV
vector 74 RSUExampleScenario.node[15].veinsmobility posy ETV
vector 75 RSUExampleScenario.node[14].veinsmobility acceleration ETV
vector 76 RSUExampleScenario.node[14].veinsmobility co2emission ETV
vector 77 RSUExampleScenario.node[15].veinsmobility speed ETV
vector 78 RSUExampleScenario.node[15].veinsmobility acceleration ETV
vector 79 RSUExampleScenario.node[15].veinsmobility co2emission ETV
vector 80 RSUExampleScenario.node[16].veinsmobility posx ETV
vector 81 RSUExampleScenario.node[16].veinsmobility posy ETV
13	18131 638 15 120 3 32 30 0.973 13.007666296901 153.3785415943 1239.3008914596
12	18769 699 15 120 3 32 30 -4.4999711390891 2.2061697699152 14.96062600473 165.72973756235
5	19468 669 9 120 2 32 31 0 19.875327841158 277.78002640412 3655.5053048901
3	20137 656 4 120 1 32 32 33 73.080139145959 1472.1667533881 73135.567588713
2	20793 758 4 120 1 32 32 51.097004042362 298.29632826741 4571.0891789368 823295.07127577
46	21551 379 71 120 18 32 15 3.6557502398392 21.007721835777 173.22500821872 2392.8483815645
45	21930 378 71 120 18 32 15 1.6417303251149 2.1222049733717 29.190285890221 57.07274232913
42	22308 405 66 120 17 32 16 2.7654112135598 31.955697103781 280.30317612248 6198.6540096085
39	22713 243 60 120 16 32 17 29.8 29.8 506.6 15096.68
38	22956 428 60 120 16 32 17 30.17598566238 296.40570138711 2112.5973252145 383169.07995822
vector 82 RSUExampleScenario.node[16].veinsmobility speed ETV
vector 83 RSUExampleScenario.node[16].veinsmobility acceleration ETV
vector 84 RSUExampleScenario.node[16].veinsmobility co2emission ETV
vector 85 RSUExampleScenario.node[17].veinsmobility posx ETV
vector 86 RSUExampleScenario.node[17].veinsmobility posy ETV
58	23705 381 80 131 21 35 15 3.9560449714555 21.831253746886 181.31415965749 2648.4324914722
57	24086 379 80 131 21 35 15 1.731709830747 2.1200275235926 29.463157402552 58.082952420525
52	24465 407 77 131 20 35 16 3.3885757293898 32.851733131942 288.99838866948 6518.2568384082
48	24872 246 74 131 19 35 17 29.8 29.8 506.6 15096.68
47	25118 429 74 131 19 35 17 30.615532662152 305.57657698246 2192.5438696663 410376.319777
vector 87 RSUExampleScenario.node[18].veinsmobility posx ETV
vector 88 RSUExampleScenario.node[18].veinsmobility posy ETV
vector 89 RSUExampleScenario.node[17].veinsmobility speed ETV
41	25731 473 60 134 16 36 21 0.973 13.97414979322 134.84747933466 1247.6459010229
40	26204 537 60 134 16 36 21 -4.4239402439073 2.1521111576026 14.358145635088 106.6440044921
37	26741 557 54 134 15 36 22 3.9143178915586 21.90702784926 286.44909207848 4252.9442047049
36	27298 394 50 134 14 36 23 29.8 73.070467794496 855.38045873655 34950.001455488
35	27692 581 50 134 14 36 23 31.165277192715 298.88690393113 3688.0908865046 775152.66846246
vector 90 RSUExampleScenario.node[19].veinsmobility posx ETV
vector 91 RSUExampleScenario.node[19].veinsmobility posy ETV
vector 92 RSUExampleScenario.node[17].veinsmobility acceleration ETV
vector 93 RSUExampleScenario.node[17].veinsmobility co2emission ETV
vector 94 RSUExampleScenario.node[18].veinsmobility speed ETV
vector 95 RSUExampleScenario.node[18].veinsmobility acceleration ETV
vector 96 RSUExampleScenario.node[18].veinsmobility co2emission ETV
vector 97 RSUExampleScenario.node[19].veinsmobility speed ETV
62	28793 411 86 140 23 38 16 3.3212668300398 22.613605952772 195.77909396956 2929.6489713758
61	29204 411 86 140 23 38 16 1.8288959320821 2.2302602617582 31.702711595421 63.038225830193
59	29615 434 83 140 22 38 17 2.2301270362817 33.932838631703 309.20383593004 7217.5296234081
54	30049 263 80 140 21 38 18 29.8 29.8 536.4 15984.72
53	30312 448 80 140 21 38 18 30.1 323.98406855602 2379.4882241783 469714.14196148
vector 98 RSUExampleScenario.node[20].veinsmobility posx ETV
vector 99 RSUExampleScenario.node[20].veinsmobility posy ETV
vector 100 RSUExampleScenario.node[19].veinsmobility acceleration ETV
vector 101 RSUExampleScenario.node[19].veinsmobility co2emission ETV
vector 102 RSUExampleScenario.node[21].veinsmobility posx ETV
vector 103 RSUExampleScenario.node[21].veinsmobility posy ETV
vector 104 RSUExampleScenario.node[20].veinsmobility speed ETV
69	31208 385 95 146 26 40 15 3.4282436325034 19.340846129895 172.1471103167 2382.2433944863
68	31593 387 95 146 26 40 15 1.7819843839551 2.0877885862836 28.963782354619 56.076579293821
67	31980 413 92 146 25 40 16 2.9276496935429 31.891432048162 277.92545793182 6115.5466583879
66	32393 251 89 146 24 40 17 29.8 29.8 506.6 15096.68
65	32644 434 89 146 24 40 17 30.341563678613 294.3538134423 2099.3723478131 377487.07338125
vector 105 RSUExampleScenario.node[20].veinsmobility acceleration ETV
vector 106 RSUExampleScenario.node[20].veinsmobility co2emission ETV
vector 107 RSUExampleScenario.node[21].veinsmobility speed ETV
vector 108 RSUExampleScenario.node[22].veinsmobility posx ETV
vector 109 RSUExampleScenario.node[22].veinsmobility posy ETV
vector 110 RSUExampleScenario.node[21].veinsmobility acceleration ETV
vector 111 RSUExampleScenario.node[21].veinsmobility co2emission ETV
vector 112 RSUExampleScenario.node[22].veinsmobility speed ETV
vector 113 RSUExampleScenario.node[22].veinsmobility acceleration ETV
vector 114 RSUExampleScenario.node[22].veinsmobility co2emission ETV
17	33745 830 23 158 5 44 40 0.973 18.351203018417 195.7460294405 2079.0388535672
16	34575 882 23 158 5 44 40 -3.602929262499 2.2987117271103 26.861677893454 114.02587532966
14	35457 886 20 158 4 44 41 0 29.761749183395 297.86781177211 5292.9904286942
7	36343 894 15 158 3 44 42 29.8 73.578776054988 1833.1225848769 86100.585145112
6	37237 1014 15 158 3 44 42 50.2993025563 323.40292475725 5093.102004332 784059.0348775
vector 115 RSUExampleScenario.node[23].veinsmobility posx ETV
vector 116 RSUExampleScenario.node[23].veinsmobility posy ETV
vector 117 RSUExampleScenario.node[23].veinsmobility speed ETV
79	38438 414 114 168 31 46 16 3.6113341802191 20.859179332349 191.3473460313 2779.8014509447
78	38852 416 114 168 31 46 16 1.7222548370808 2.0999408531096 30.95331793343 60.092944636955
77	39268 441 108 168 30 46 17 2.5648352683114 33.518153201741 308.38266722586 7113.1578765492
74	39709 270 104 168 29 46 18 26.6 29.8 498 13818.96
73	39979 467 104 168 29 46 18 30.125752863912 323.70809863892 2395.3934305962 473006.44923424
vector 118 RSUExampleScenario.node[23].veinsmobility acceleration ETV
vector 119 RSUExampleScenario.node[23].veinsmobility co2emission ETV
vector 120 RSUExampleScenario.node[24].veinsmobility posx ETV
vector 121 RSUExampleScenario.node[24].veinsmobility posy ETV
84	40709 389 128 179 34 48 15 3.4630268375969 19.899402908599 173.76044746868 2403.3199121291
83	41098 389 128 179 34 48 15 1.7289133479446 2.2038455788559 28.856778395921 55.739962753984
82	41487 415 125 179 33 48 16 3.1894681280932 32.046246524014 282.41756268674 6268.8109087785
81	41902 255 120 179 32 48 17 29.8 29.8 506.6 15096.68
80	42157 440 120 179 32 48 17 30.470775532589 299.06736451695 2141.2320507553 391999.92392559
vector 122 RSUExampleScenario.node[24].veinsmobility speed ETV
76	42660 515 104 182 29 49 21 0.973 11.598261480474 133.75879753087 1069.5587731372
75	43175 549 104 182 29 49 21 -4.4774177087994 2.176063681778 15.518400011556 103.58066439885
72	43724 572 101 182 28 49 22 3.6532551916021 20.828941718699 291.44103552567 4318.8651811907
71	44296 407 98 182 27 49 23 29.8 75.293408804022 859.84507753376 35604.469125845
70	44703 596 98 182 27 49 23 30.760058562694 302.44350449245 3593.0535353064 747667.51459323
vector 123 RSUExampleScenario.node[25].veinsmobility posx ETV
vector 124 RSUExampleScenario.node[25].veinsmobility posy ETV
vector 125 RSUExampleScenario.node[24].veinsmobility acceleration ETV
vector 126 RSUExampleScenario.node[24].veinsmobility co2emission ETV
vector 127 RSUExampleScenario.node[25].veinsmobility speed ETV
93	45625 384 137 188 37 51 15 3.9866842659967 23.391206208086 186.3504347387 2798.1661042602
92	46009 387 137 188 37 51 15 1.7696409747517 2.1534129766189 29.464252761502 58.070161593871
89	46396 412 134 188 36 51 16 3.9310463069355 33.395299068438 296.37585545628 6788.7179360817
86	46808 255 131 188 35 51 17 29.8 29.8 506.6 15096.68
85	47063 441 131 188 35 51 17 30.937165188007 312.98637857389 2259.2968021069 434221.80938729
vector 128 RSUExampleScenario.node[25].veinsmobility acceleration ETV
vector 129 RSUExampleScenario.node[25].veinsmobility co2emission ETV
vector 130 RSUExampleScenario.node[26].veinsmobility posx ETV
vector 131 RSUExampleScenario.node[26].veinsmobility posy ETV
vector 132 RSUExampleScenario.node[27].veinsmobility posx ETV
vector 133 RSUExampleScenario.node[27].veinsmobility posy ETV
vector 134 RSUExampleScenario.node[26].veinsmobility speed ETV
vector 135 RSUExampleScenario.node[26].veinsmobility acceleration ETV
vector 136 RSUExampleScenario.node[26].veinsmobility co2emission ETV
vector 137 RSUExampleScenario.node[27].veinsmobility speed ETV
vector 138 RSUExampleScenario.node[28].veinsmobility posx ETV
vector 139 RSUExampleScenario.node[28].veinsmobility posy ETV
vector 140 RSUExampleScenario.node[27].veinsmobility acceleration ETV
vector 141 RSUExampleScenario.node[27].veinsmobility co2emission ETV
111	48419 404 152 203 42 56 15 3.9553601422082 22.615916284041 176.60554436997 2543.9758585198
110	48823 402 152 203 42 56 15 1.4987744507683 2.1866557585378 29.015344809836 56.586862919844
107	49225 429 149 203 41 56 16 3.3999972693093 32.415342079146 284.15921978374 6279.8141712922
103	49654 272 146 203 40 56 17 26.6 29.8 481 13652.84
102	49926 459 146 203 40 56 17 30.589871332487 300.71628924202 2170.4814913211 400090.69147907
vector 142 RSUExampleScenario.node[29].veinsmobility posx ETV
vector 143 RSUExampleScenario.node[29].veinsmobility posy ETV
vector 144 RSUExampleScenario.node[28].veinsmobility speed ETV
vector 145 RSUExampleScenario.node[30].veinsmobility posx ETV
vector 146 RSUExampleScenario.node[30].veinsmobility posy ETV
vector 147 RSUExampleScenario.node[28].veinsmobility acceleration ETV
vector 148 RSUExampleScenario.node[28].veinsmobility co2emission ETV
vector 149 RSUExampleScenario.node[29].veinsmobility speed ETV
101	50898 499 143 209 39 58 20 0.973 13.543386576808 147.33723365463 1408.7966412472
100	51397 527 143 209 39 58 20 -4.5 2.1070539570949 16.821211070401 119.49860125368
97	51924 544 140 209 38 58 21 2.7239530982321 23.550683655227 293.56601004456 4749.6375173257
91	52468 382 137 209 37 58 22 29.8 75.362076414494 822.82157292912 34164.670707217
90	52850 570 137 209 37 58 22 30.175736723844 302.55336942404 3357.5602514843 700060.97835733
vector 150 RSUExampleScenario.node[29].veinsmobility acceleration ETV
vector 151 RSUExampleScenario.node[29].veinsmobility co2emission ETV
vector 152 RSUExampleScenario.node[30].veinsmobility speed ETV
51	53622 851 77 212 20 59 40 0.973 17.400517054731 180.06083882887 1736.7617571375
50	54473 906 77 212 20 59 40 -3.7581409432066 2.264203825232 25.783644079142 107.58824447631
49	55379 905 74 212 19 59 41 0 28.050636271714 280.30304605258 4603.1265518046
44	56284 958 71 212 18 59 42 29.8 73.656625527261 1841.1362209095 87053.051257754
43	57242 1078 71 212 18 59 42 50.174761755976 306.09870355288 4980.6367197535 734944.64920413
vector 153 RSUExampleScenario.node[30].veinsmobility acceleration ETV
vector 154 RSUExampleScenario.node[30].veinsmobility co2emission ETV
55	58459 1030 80 217 21 60 40 50.376373519453 100.27227152107 3560.3983802627 324207.96986498
56	59489 1004 80 217 21 60 40 42.341053795694 73.530599603629 1975.2419718207 100390.77344242
60	60493 869 83 217 22 60 39 0 8.8557208470604 59.826431642619 293.83666667049
63	61362 876 86 217 23 60 38 -3.5252365293301 2.2388149947469 -0.84541767167102 53.214508692662
64	62238 773 86 217 23 60 38 0.973 5.8900776994094 55.623586059931 124.50871952194
87	63011 645 134 217 36 60 25 50.195976336941 93.260161163465 2071.1983104244 176751.65544998
88	63656 646 134 217 36 60 25 46.72428208776 73.643364459978 1330.8221044086 72858.60756918
94	64302 655 137 217 37 60 24 2.4954277125483e-05 8.6979086793208 51.158780915201 282.17565607704
95	64957 644 140 217 38 60 23 -2.886063016275 2.1560115440679 -1.482721459055 36.203392004832
96	65601 507 140 217 38 60 23 0.973 5.8606432871344 37.103876790848 98.445083426852
98	66108 571 143 217 39 60 22 50.481956168903 86.625253272532 1711.9572516876 136422.70820107
99	66679 570 143 217 39 60 22 50.871710693865 73.464600721981 1240.319437182 71179.102202815
104	67249 590 146 217 40 60 21 0.00034543939113108 7.2699918730014 42.121484845163 194.61217621947
105	67839 581 149 217 41 60 20 -2.0591432125547 1.8531984955911 -2.8027839531248 16.816598437246
106	68420 449 149 217 41 60 20 0.973 4.4375814804252 28.487317518717 57.224198051849
108	68869 499 152 217 42 60 19 30.1 303.1764048195 2453.8395897442 457166.58437459
109	69368 304 152 217 42 60 19 29.8 29.8 566.2 16872.76
112	69672 485 155 217 43 60 18 2.3494475005942 29.059106926529 286.03745000414 5591.4811269918
113	70157 458 158 217 44 60 17 0.33672365927137 2.0670950209955 26.709659425934 45.620462508537
114	70615 459 158 217 44 60 17 3.0641064985835 18.134812479063 150.36196040113 1667.4561211561
115	71074 428 162 217 45 60 16 30.248156184373 269.02660056107 1843.6523739721 304450.90702158
116	71502 256 162 217 45 60 16 26.6 29.8 444.8 12403.84
117	71758 403 168 217 46 60 15 2.9880975998364 30.40927396474 252.00975415764 5311.0159559768
118	72161 377 174 217 47 60 14 1.7667364749592 2.0602203179407 27.421176364904 53.777918985725
119	72538 376 174 217 47 60 14 3.7760447086732 19.970863063323 155.95100857015 2055.5822876433
120	72914 348 179 217 48 60 13 30.785337641826 192.1445802523 1169.8126048422 139918.83708644
121	73262 208 179 217 48 60 13 29.8 29.8 387.4 11544.52
122	73470 324 182 217 49 60 12 3.7066880847726 25.359441344142 172.1338457929 3021.2688241024
123	73794 296 185 217 50 60 11 30.125314239811 129.02827454022 719.13675769104 58468.909301099
124	74090 174 185 217 50 60 11 29.8 33 331 9969.4
125	74264 295 185 217 50 60 11 1.7692928511393 2.0986761558987 21.65275325937 42.766263720004
126	74559 296 185 217 50 60 11 3.7242863289854 16.521172225407 106.80247176806 1212.4096731399
127	74855 267 188 217 51 60 10 2.3796721134973 19.393318804299 107.49836362609 1452.692055344
128	75122 243 191 217 52 60 9 1.6196967196115 2.0423486728803 17.013646690801 32.281461909979
129	75365 242 191 217 52 60 9 3.1143839550974 11.715979430245 65.627284172257 551.62551095761
130	75607 215 194 217 53 60 8 30.349453602984 86.263077929005 412.46209838143 24107.605746107
131	75822 128 194 217 53 60 8 29.8 29.8 238.4 7104.32
132	75950 189 197 217 54 60 7 50.300139162988 76.667711336274 434.46919164949 27617.348205614
133	76139 189 197 217 54 60 7 57.096091642598 73.578253098744 463.56004840333 30952.699435457
134	76328 189 197 217 54 60 7 3.0350712236516 14.643933361285 62.11219743555 654.99229891465
135	76517 161 200 217 55 60 6 1.7852385378908 2.0440868546115 11.608862137634 22.496958444666
136	76678 160 200 217 55 60 6 3.7156267567059 9.047339803061 37.655030956861 254.80740636287
137	76838 161 200 217 55 60 6 2.7500078170614 8.4414662399308 32.085216954393 194.91221016959
138	76999 134 203 217 56 60 5 30.931865378838 53.550686145793 202.00766827551 8493.7036145826
139	77133 80 203 217 56 60 5 29.8 29.8 149 4440.2
140	77213 136 203 217 56 60 5 -2.7475338003941 2.242918896575 0.6545300805726 23.949453277879
141	77349 115 203 217 56 60 5 0.973 5.2746734055057 15.369826145662 63.227105813696
142	77464 108 206 217 57 60 4 50.609071478027 61.750522540293 221.51795709716 12338.99513921
143	77572 108 206 217 57 60 4 66.420708736327 73.385141944557 281.6127655802 19854.353399658
144	77680 107 206 217 57 60 4 3.7312055229683 9.3245278068361 26.113896013744 187.5029780252
145	77787 81 209 217 58 60 3 30.124834287055 35.211078179827 96.982582263787 3148.8373766428
146	77868 48 209 217 58 60 3 29.8 29.8 89.4 2664.12
147	77916 80 209 217 58 60 3 1.6591914958786 1.968280071062 5.5933222838677 10.491611899379
148	77996 81 209 217 58 60 3 4.1056287979178 6.0523920440209 14.602292464941 73.23918753984
149	78077 80 209 217 58 60 3 3.3370361456569 6.785109469089 15.370825290268 84.722159081177
150	78157 53 212 217 59 60 2 1.5364297935671 1.911643529865 3.4480733234321 6.0149974958353
151	78210 54 212 217 59 60 2 3.7946524319338 3.9785576413459 7.7732100732797 30.228307984693
152	78264 53 212 217 59 60 2 2.523848307469 4.5379741910134 7.0618224984824 26.963020037418
153	78317 27 217 217 60 60 1 2.0141258835443 2.0141258835443 2.0141258835443 4.0567030747632
154	78344 26 217 217 60 60 1 3.540297173417 3.540297173417 3.540297173417 12.533704076104
vector 155 RSUExampleScenario.node[31].veinsmobility posx ETV
vector 156 RSUExampleScenario.node[31].veinsmobility posy ETV
55	78494 26 223 223 61 61 1 103.17788973979 103.17788973979 103.17788973979 10645.676931156
56	78520 26 223 223 61 61 1 40.524501123933 40.524501123933 40.524501123933 1642.2351913436
60	78546 26 223 223 61 61 1 4.3633035101118 4.3633035101118 4.3633035101118 19.038417521354
63	78572 26 223 223 61 61 1 2.1244885153649 2.1244885153649 2.1244885153649 4.5134514519174
64	78598 26 223 223 61 61 1 3.5621786665909 3.5621786665909 3.5621786665909 12.689116852715
87	78624 26 223 223 61 61 1 94.969781363938 94.969781363938 94.969781363938 9019.2593723142
88	78650 26 223 223 61 61 1 45.655611980869 45.655611980869 45.655611980869 2084.4349053477
94	78676 26 223 223 61 61 1 2.7947793704752 2.7947793704752 2.7947793704752 7.8107917296336
95	78702 26 223 223 61 61 1 1.7693820293056 1.7693820293056 1.7693820293056 3.1307127656297
96	78728 26 223 223 61 61 1 2.4385895429646 2.4385895429646 2.4385895429646 5.9467189590565
98	78754 26 223 223 61 61 1 87.445491049908 87.445491049908 87.445491049908 7646.7139049596
99	78780 26 223 223 61 61 1 50.358986526835 50.358986526835 50.358986526835 2536.02752401
104	78806 27 223 223 61 61 1 1.5855398057396 1.5855398057396 1.5855398057396 2.5139364755848
105	78833 27 223 223 61 61 1 1.3087792629621 1.3087792629621 1.3087792629621 1.7129031591596
106	78860 27 223 223 61 61 1 1.6869589675116 1.6869589675116 1.6869589675116 2.8458305580678
115	78887 27 223 223 61 61 1 300.56145880207 300.56145880207 300.56145880207 90337.19051723
116	78914 16 223 223 61 61 1 26.6 26.6 26.6 707.56
117	78930 27 223 223 61 61 1 32.484894815139 32.484894815139 32.484894815139 1055.2683911507
118	78957 27 223 223 61 61 1 2.0756208503991 2.0756208503991 2.0756208503991 4.3082019146117
119	78984 27 223 223 61 61 1 22.093589772028 22.093589772028 22.093589772028 488.12670901466
120	79011 27 223 223 61 61 1 218.67006637573 218.67006637573 218.67006637573 47816.597928767
121	79038 16 223 223 61 61 1 29.8 29.8 29.8 888.04
122	79054 27 223 223 61 61 1 27.456550202356 27.456550202356 27.456550202356 753.8621490145
123	79081 27 223 223 61 61 1 149.40632618436 149.40632618436 149.40632618436 22322.250303906
124	79108 14 223 223 61 61 1 33 33 33 1089
125	79122 27 223 223 61 61 1 2.0971088582138 2.0971088582138 2.0971088582138 4.3978655631987
126	79149 27 223 223 61 61 1 18.223233264007 18.223233264007 18.223233264007 332.08623059441
127	79176 27 223 223 61 61 1 21.264779786857 21.264779786857 21.264779786857 452.19085938354
128	79203 27 223 223 61 61 1 1.8714609825588 1.8714609825588 1.8714609825588 3.5023662092399
129	79230 27 223 223 61 61 1 12.614989747786 12.614989747786 12.614989747786 159.13796633676
130	79257 27 223 223 61 61 1 101.96307835196 101.96307835196 101.96307835196 10396.469347008
131	79284 16 223 223 61 61 1 29.8 29.8 29.8 888.04
132	79300 27 223 223 61 61 1 78.889788915848 78.889788915848 78.889788915848 6223.598795187
133	79327 27 223 223 61 61 1 55.707088468778 55.707088468778 55.707088468778 3103.2797056683
134	79354 27 223 223 61 61 1 16.577625464595 16.577625464595 16.577625464595 274.8176660444
135	79381 25 223 223 61 61 1 1.93369210331 1.93369210331 1.93369210331 3.7391651504036
136	79406 27 223 223 61 61 1 10.056068254359 10.056068254359 10.056068254359 101.12450873632
137	79433 27 223 223 61 61 1 2.2431144207554 2.2431144207554 2.2431144207554 5.0315623046008
138	79460 27 223 223 61 61 1 63.991525752229 63.991525752229 63.991525752229 4094.9153680982
139	79487 16 223 223 61 61 1 29.8 29.8 29.8 888.04
140	79503 28 223 223 61 61 1 -1.1614234768786 -1.1614234768786 -1.1614234768786 1.3489044926448
141	79531 17 223 223 61 61 1 0.973 0.973 0.973 0.946729
142	79548 27 223 223 61 61 1 66.628636605751 66.628636605751 66.628636605751 4439.3752159412
143	79575 27 223 223 61 61 1 63.371438098137 63.371438098137 63.371438098137 4015.939166626
144	79602 27 223 223 61 61 1 11.305738313094 11.305738313094 11.305738313094 127.81971880416
145	79629 27 223 223 61 61 1 40.978198411347 40.978198411347 40.978198411347 1679.2127450397
146	79656 16 223 223 61 61 1 29.8 29.8 29.8 888.04
147	79672 27 223 223 61 61 1 1.9812105062581 1.9812105062581 1.9812105062581 3.9251950701073
148	79699 27 223 223 61 61 1 7.1870556471601 7.1870556471601 7.1870556471601 51.653768875376
149	79726 27 223 223 61 61 1 5.0839251282976 5.0839251282976 5.0839251282976 25.846294710136
150	79753 28 223 223 61 61 1 -1.7011843407913 -1.7011843407913 -1.7011843407913 2.8940281613536
151	79781 17 223 223 61 61 1 0.973 0.973 0.973 0.946729
152	79798 25 223 223 61 61 1 6.75424656537 6.75424656537 6.75424656537 45.619846665812
153	79823 27 223 223 61 61 1 2.2162723743566 2.2162723743566 2.2162723743566 4.9118632373364
154	79850 27 223 223 61 61 1 5.0718786129118 5.0718786129118 5.0718786129118 25.723952664112
155	79877 27 223 223 61 61 1 30.472736492715 30.472736492715 30.472736492715 928.58766935443
156	79904 16 223 223 61 61 1 29.8 29.8 29.8 888.04
vector 157 RSUExampleScenario.node[31].veinsmobility speed ETV
55	79983 26 229 229 62 62 1 107.84160154435 107.84160154435 107.84160154435 11629.811023651
56	80009 26 229 229 62 62 1 37.608812447307 37.608812447307 37.608812447307 1414.4227736967
60	80035 26 229 229 62 62 1 6.3844186137203 6.3844186137203 6.3844186137203 40.760801035218
63	80061 26 229 229 62 62 1 2.0211151036085 2.0211151036085 2.0211151036085 4.0849062620342
64	80087 26 229 229 62 62 1 4.5518028989351 4.5518028989351 4.5518028989351 20.718909630754
87	80113 26 229 229 62 62 1 98.081581378554 98.081581378554 98.081581378554 9619.996605718
88	80139 26 229 229 62 62 1 43.710450328402 43.710450328402 43.710450328402 1910.6034679117
94	80165 26 229 229 62 62 1 3.7087064492878 3.7087064492878 3.7087064492878 13.754503526989
95	80191 27 229 229 62 62 1 0.91392707881258 0.91392707881258 0.91392707881258 0.8352627053869
96	80218 26 229 229 62 62 1 2.1104868041655 2.1104868041655 2.1104868041655 4.4541545505569
98	80244 26 229 229 62 62 1 89.573871240392 89.573871240392 89.573871240392 8023.4784089903
99	80270 26 229 229 62 62 1 49.028552852128 49.028552852128 49.028552852128 2403.7989947739
104	80296 27 229 229 62 62 1 3.1139283212143 3.1139283212143 3.1139283212143 9.6965495896602
105	80323 27 229 229 62 62 1 1.5283885154746 1.5283885154746 1.5283885154746 2.3359714542348
106	80350 27 229 229 62 62 1 2.4099946638915 2.4099946638915 2.4099946638915 5.8080742799853
120	80377 27 229 229 62 62 1 247.21824779287 247.21824779287 247.21824779287 61116.862041774
121	80404 16 229 229 62 62 1 29.8 29.8 29.8 888.04
122	80420 27 229 229 62 62 1 29.420890763707 29.420890763707 29.420890763707 865.58881333
123	80447 27 229 229 62 62 1 171.73275874149 171.73275874149 171.73275874149 29492.140424962
124	80474 14 229 229 62 62 1 33 33 33 1089
125	80488 27 229 229 62 62 1 1.9643405613513 1.9643405613513 1.9643405613513 3.8586338409699
126	80515 27 229 229 62 62 1 18.809849146567 18.809849146567 18.809849146567 353.81042491659
127	80542 27 229 229 62 62 1 23.147621895099 23.147621895099 23.147621895099 535.81239939847
128	80569 27 229 229 62 62 1 1.8828421082418 1.8828421082418 1.8828421082418 3.5450944045683
129	80596 27 229 229 62 62 1 13.875975914302 13.875975914302 13.875975914302 192.54270757429
130	80623 27 229 229 62 62 1 119.64521562348 119.64521562348 119.64521562348 14314.977621589
131	80650 16 229 229 62 62 1 29.8 29.8 29.8 888.04
132	80666 27 229 229 62 62 1 80.943605103876 80.943605103876 80.943605103876 6551.8672072122
133	80693 27 229 229 62 62 1 54.423264164066 54.423264164066 54.423264164066 2961.8916822717
134	80720 27 229 229 62 62 1 18.611274285599 18.611274285599 18.611274285599 346.37953053381
135	80747 27 229 229 62 62 1 2.0336488210038 2.0336488210038 2.0336488210038 4.1357275271699
136	80774 27 229 229 62 62 1 11.724894113244 11.724894113244 11.724894113244 137.47314196678
137	80801 27 229 229 62 62 1 2.7281894429273 2.7281894429273 2.7281894429273 7.4430176365001
138	80828 27 229 229 62 62 1 76.310994141407 76.310994141407 76.310994141407 5823.3678268499
139	80855 16 229 229 62 62 1 29.8 29.8 29.8 888.04
140	80871 28 229 229 62 62 1 0.48507502217194 0.48507502217194 0.48507502217194 0.23529777713511
141	80899 27 229 229 62 62 1 1.5624174504052 1.5624174504052 1.5624174504052 2.4411482893308
142	80926 27 229 229 62 62 1 70.375075094707 70.375075094707 70.375075094707 4952.6511945857
143	80953 26 229 229 62 62 1 61.02956893951 61.02956893951 61.02956893951 3724.6082849424
144	80979 27 229 229 62 62 1 13.194280405844 13.194280405844 13.194280405844 174.08903542804
145	81006 27 229 229 62 62 1 48.670157718071 48.670157718071 48.670157718071 2368.7842523019
146	81033 16 229 229 62 62 1 29.8 29.8 29.8 888.04
147	81049 27 229 229 62 62 1 1.8885420927498 1.8885420927498 1.8885420927498 3.566591236088
148	81076 27 229 229 62 62 1 7.9639113820247 7.9639113820247 7.9639113820247 63.423884500743
149	81103 27 229 229 62 62 1 4.0353621352481 4.0353621352481 4.0353621352481 16.284147562594
150	81130 28 229 229 62 62 1 -1.0485629930495 -1.0485629930495 -1.0485629930495 1.099484350393
151	81158 17 229 229 62 62 1 0.973 0.973 0.973 0.946729
152	81175 27 229 229 62 62 1 8.5286425652319 8.5286425652319 8.5286425652319 72.737744005485
153	81202 27 229 229 62 62 1 1.7743959998619 1.7743959998619 1.7743959998619 3.1484811643258
154	81229 27 229 229 62 62 1 5.2258279550907 5.2258279550907 5.2258279550907 27.309277816208
155	81256 27 229 229 62 62 1 32.890235541484 32.890235541484 32.890235541484 1081.7675939743
156	81283 16 229 229 62 62 1 29.8 29.8 29.8 888.04
157	81299 27 229 229 62 62 1 3.2792662612884 3.2792662612884 3.2792662612884 10.753587212424
vector 158 RSUExampleScenario.node[31].veinsmobility acceleration ETV
vector 159 RSUExampleScenario.node[31].veinsmobility co2emission ETV
55	81465 26 234 234 63 63 1 113.99904201367 113.99904201367 113.99904201367 12995.781580035
56	81491 26 234 234 63 63 1 33.769658379523 33.769658379523 33.769658379523 1140.3898270697
60	81517 26 234 234 63 63 1 7.2783857819977 7.2783857819977 7.2783857819977 52.974899591586
63	81543 26 234 234 63 63 1 0.8939671682774 0.8939671682774 0.8939671682774 0.79917729795792
64	81569 26 234 234 63 63 1 3.0648277575478 3.0648277575478 3.0648277575478 9.3931691834357
87	81595 26 234 234 63 63 1 99.281158907112 99.281158907112 99.281158907112 9856.7485139393
88	81621 26 234 234 63 63 1 42.960603874018 42.960603874018 42.960603874018 1845.6134852203
94	81647 12 234 234 63 63 1 0 0 0 0
95	81659 27 234 234 63 63 1 -3.7087064492878 -3.7087064492878 -3.7087064492878 13.754503526989
96	81686 16 234 234 63 63 1 0.973 0.973 0.973 0.946729
98	81702 26 234 234 63 63 1 91.463919977164 91.463919977164 91.463919977164 8365.648657589
99	81728 26 234 234 63 63 1 47.847098289883 47.847098289883 47.847098289883 2289.3448147617
104	81754 27 234 234 63 63 1 1.5844078030856 1.5844078030856 1.5844078030856 2.5103480864787
105	81781 28 234 234 63 63 1 -1.5295205181286 -1.5295205181286 -1.5295205181286 2.3394330153764
106	81809 17 234 234 63 63 1 0.973 0.973 0.973 0.946729
120	81826 27 234 234 63 63 1 277.75993730157 277.75993730157 277.75993730157 77150.582769771
121	81853 16 234 234 63 63 1 29.8 29.8 29.8 888.04
122	81869 27 234 234 63 63 1 31.326942016655 31.326942016655 31.326942016655 981.37729611487
123	81896 27 234 234 63 63 1 193.99175529854 193.99175529854 193.99175529854 37632.801123808
124	81923 14 234 234 63 63 1 33 33 33 1089
125	81937 27 234 234 63 63 1 1.9060512529477 1.9060512529477 1.9060512529477 3.6330313788634
126	81964 27 234 234 63 63 1 19.851558823675 19.851558823675 19.851558823675 394.08438772984
127	81991 27 234 234 63 63 1 20.389163811274 20.389163811274 20.389163811274 415.71800092295
128	82018 28 234 234 63 63 1 -2.7584580838256 -2.7584580838256 -2.7584580838256 7.6090910002227
129	82046 17 234 234 63 63 1 0.973 0.973 0.973 0.946729
130	82063 27 234 234 63 63 1 139.24032722442 139.24032722442 139.24032722442 19387.868725563
131	82090 16 234 234 63 63 1 29.8 29.8 29.8 888.04
132	82106 27 234 234 63 63 1 83.045484221268 83.045484221268 83.045484221268 6896.5524495449
133	82133 27 234 234 63 63 1 53.109396101186 53.109396101186 53.109396101186 2820.6079542327
134	82160 27 234 234 63 63 1 20.465208489754 20.465208489754 20.465208489754 418.82475852909
135	82187 27 234 234 63 63 1 1.8539342041547 1.8539342041547 1.8539342041547 3.4370720333346
136	82214 27 234 234 63 63 1 12.032869231145 12.032869231145 12.032869231145 144.78994193384
137	82241 27 234 234 63 63 1 2.1886745011168 2.1886745011168 2.1886745011168 4.7902960718388
138	82268 26 234 234 63 63 1 90.60876864242 90.60876864242 90.60876864242 8209.9489548957
139	82294 16 234 234 63 63 1 29.8 29.8 29.8 888.04
140	82310 29 234 234 63 63 1 -0.53951494181054 -0.53951494181054 -0.53951494181054 0.29107637243683
141	82339 17 234 234 63 63 1 0.973 0.973 0.973 0.946729
142	82356 27 234 234 63 63 1 73.445075430654 73.445075430654 73.445075430654 5394.1791050145
143	82383 27 234 234 63 63 1 59.110535936586 59.110535936586 59.110535936586 3494.0554587105
144	82410 27 234 234 63 63 1 15.213895075741 15.213895075741 15.213895075741 231.46260337566
145	82437 27 234 234 63 63 1 58.184428969701 58.184428969701 58.184428969701 3385.4277745301
146	82464 16 234 234 63 63 1 29.8 29.8 29.8 888.04
147	82480 27 234 234 63 63 1 2.0196146698971 2.0196146698971 2.0196146698971 4.0788434148637
148	82507 27 234 234 63 63 1 9.5742412678389 9.5742412678389 9.5742412678389 91.66609585479
149	82534 27 234 234 63 63 1 3.2239098907454 3.2239098907454 3.2239098907454 10.393594983646
150	82561 29 234 234 63 63 1 -0.81145224450275 -0.81145224450275 -0.81145224450275 0.65845474510854
151	82590 17 234 234 63 63 1 0.973 0.973 0.973 0.946729
152	82607 27 234 234 63 63 1 10.356372368761 10.356372368761 10.356372368761 107.25444864043
153	82634 27 234 234 63 63 1 1.8277298035286 1.8277298035286 1.8277298035286 3.3405962347068
154	82661 27 234 234 63 63 1 6.2740075700317 6.2740075700317 6.2740075700317 39.363170988815
155	82688 27 234 234 63 63 1 37.302499348597 37.302499348597 37.302499348597 1391.4764576521
156	82715 16 234 234 63 63 1 29.8 29.8 29.8 888.04
157	82731 27 234 234 63 63 1 5.3679949514102 5.3679949514102 5.3679949514102 28.815369798365
158	82758 27 234 234 63 63 1 2.0887286901218 2.0887286901218 2.0887286901218 4.3627875409379
159	82785 27 234 234 63 63 1 4.0854020120744 4.0854020120744 4.0854020120744 16.690509600261
vector 160 RSUExampleScenario.node[32].veinsmobility posx ETV
vector 161 RSUExampleScenario.node[32].veinsmobility posy ETV
55	82936 25 238 238 64 64 1 121.4842830966 121.4842830966 121.4842830966 14758.431039494
56	82961 13 238 238 64 64 1 33 33 33 1089
60	82974 26 238 238 64 64 1 8.3964463133461 8.3964463133461 8.3964463133461 70.500310692904
63	83000 26 238 238 64 64 1 1.1180605313485 1.1180605313485 1.1180605313485 1.2500593517592
64	83026 26 238 238 64 64 1 3.8321726293436 3.8321726293436 3.8321726293436 14.68554706109
87	83052 26 238 238 64 64 1 100.27540341154 100.27540341154 100.27540341154 10055.156529347
88	83078 26 238 238 64 64 1 42.339095780714 42.339095780714 42.339095780714 1792.5990315285
94	83104 26 238 238 64 64 1 2.1721289549131 2.1721289549131 2.1721289549131 4.718144196772
95	83130 26 238 238 64 64 1 2.1721289549131 2.1721289549131 2.1721289549131 4.718144196772
96	83156 26 238 238 64 64 1 2.3528029895489 2.3528029895489 2.3528029895489 5.5356819076301
98	83182 26 238 238 64 64 1 92.661156841361 92.661156841361 92.661156841361 8586.0899871792
99	83208 26 238 238 64 64 1 47.098714966334 47.098714966334 47.098714966334 2218.28895148
104	83234 27 238 238 64 64 1 1.5807883657834 1.5807883657834 1.5807883657834 2.4988918573961
105	83261 31 238 238 64 64 1 -0.0036194373022407 -0.0036194373022407 -0.0036194373022407 1.3100326384851e-05
106	83292 27 238 238 64 64 1 1.1852432505735 1.1852432505735 1.1852432505735 1.40480156303
120	83319 27 238 238 64 64 1 310.28140858316 310.28140858316 310.28140858316 96274.552512348
121	83346 16 238 238 64 64 1 29.8 29.8 29.8 888.04
122	83362 27 238 238 64 64 1 33.439583954884 33.439583954884 33.439583954884 1118.2057750757
123	83389 27 238 238 64 64 1 211.90591910981 211.90591910981 211.90591910981 44904.118553774
124	83416 14 238 238 64 64 1 33 33 33 1089
125	83430 27 238 238 64 64 1 2.1126419382286 2.1126419382286 2.1126419382286 4.4632559591624
126	83457 26 238 238 64 64 1 23.20304169836 23.20304169836 23.20304169836 538.38114405585
127	83483 27 238 238 64 64 1 15.889163811274 15.889163811274 15.889163811274 252.46552662148
128	83510 16 238 238 64 64 1 -4.5 -4.5 -4.5 20.25
129	83526 17 238 238 64 64 1 0.973 0.973 0.973 0.946729
130	83543 27 238 238 64 64 1 160.83843768407 160.83843768407 160.83843768407 25869.003036653
131	83570 16 238 238 64 64 1 29.8 29.8 29.8 888.04
132	83586 27 238 238 64 64 1 84.671316381519 84.671316381519 84.671316381519 7169.2318177793
133	83613 27 238 238 64 64 1 52.093101237566 52.093101237566 52.093101237566 2713.6911965473
134	83640 27 238 238 64 64 1 22.481022771945 22.481022771945 22.481022771945 505.3963848727
135	83667 26 238 238 64 64 1 2.015814282191 2.015814282191 2.015814282191 4.0635072202852
136	83693 27 238 238 64 64 1 14.165611044844 14.165611044844 14.165611044844 200.6645362738
137	83720 27 238 238 64 64 1 1.8077445069559 1.8077445069559 1.8077445069559 3.2679402024293
138	83747 27 238 238 64 64 1 106.84802288838 106.84802288838 106.84802288838 11416.499995155
139	83774 16 238 238 64 64 1 29.8 29.8 29.8 888.04
140	83790 29 238 238 64 64 1 -0.38092999416087 -0.38092999416087 -0.38092999416087 0.1451076604514
141	83819 17 238 238 64 64 1 0.973 0.973 0.973 0.946729
142	83836 27 238 238 64 64 1 75.870842810594 75.870842810594 75.870842810594 5756.3847887899
143	83863 26 238 238 64 64 1 57.59420787466 57.59420787466 57.59420787466 3317.0927807095
144	83889 27 238 238 64 64 1 17.045213025816 17.045213025816 17.045213025816 290.53928709545
145	83916 27 238 238 64 64 1 69.548745634769 69.548745634769 69.548745634769 4837.0280193698
146	83943 16 238 238 64 64 1 29.8 29.8 29.8 888.04
147	83959 26 238 238 64 64 1 1.831317950075 1.831317950075 1.831317950075 3.353725434267
148	83985 27 238 238 64 64 1 9.9126136801484 9.9126136801484 9.9126136801484 98.259909971865
149	84012 27 238 238 64 64 1 2.5695338533259 2.5695338533259 2.5695338533259 6.6025042233876
150	84039 29 238 238 64 64 1 -0.65437603741949 -0.65437603741949 -0.65437603741949 0.42820799834884
151	84068 17 238 238 64 64 1 0.973 0.973 0.973 0.946729
152	84085 27 238 238 64 64 1 12.138018878145 12.138018878145 12.138018878145 147.33150228621
153	84112 27 238 238 64 64 1 1.7816465093847 1.7816465093847 1.7816465093847 3.1742642844028
154	84139 27 238 238 64 64 1 7.0725241522913 7.0725241522913 7.0725241522913 50.020597884744
155	84166 27 238 238 64 64 1 43.780324253881 43.780324253881 43.780324253881 1916.7167917749
156	84193 16 238 238 64 64 1 29.8 29.8 29.8 888.04
157	84209 27 238 238 64 64 1 7.3231200489308 7.3231200489308 7.3231200489308 53.628087251053
158	84236 27 238 238 64 64 1 1.9551250975206 1.9551250975206 1.9551250975206 3.8225141469551
159	84263 27 238 238 64 64 1 4.9500922072613 4.9500922072613 4.9500922072613 24.503412860389
160	84290 27 238 238 64 64 1 31.151717098848 31.151717098848 31.151717098848 970.42947820663
161	84317 16 238 238 64 64 1 29.8 29.8 29.8 888.04
vector 162 RSUExampleScenario.node[32].veinsmobility speed ETV
55	84396 26 244 244 65 65 1 130.96911711523 130.96911711523 130.96911711523 17152.909637943
56	84422 13 244 244 65 65 1 33 33 33 1089
60	84435 26 244 244 65 65 1 10.372106114431 10.372106114431 10.372106114431 107.58058524901
63	84461 26 244 244 65 65 1 1.9756598010845 1.9756598010845 1.9756598010845 3.9032316496214
64	84487 26 244 244 65 65 1 6.6519426918032 6.6519426918032 6.6519426918032 44.248341575034
87	84513 26 244 244 65 65 1 102.95183322641 102.95183322641 102.95183322641 10599.079964678
88	84539 26 244 244 65 65 1 40.665828556665 40.665828556665 40.665828556665 1653.7096122
94	84565 26 244 244 65 65 1 3.9586640604831 3.9586640604831 3.9586640604831 15.671021143761
95	84591 24 244 244 65 65 1 1.78653510557 1.78653510557 1.78653510557 3.1917076834341
96	84615 26 244 244 65 65 1 3.0111192469139 3.0111192469139 3.0111192469139 9.0668391191352
98	84641 25 244 244 65 65 1 94.57899186057 94.57899186057 94.57899186057 8945.1857013618
99	84666 26 244 244 65 65 1 45.899891418033 45.899891418033 45.899891418033 2106.8000321873
104	84692 27 244 244 65 65 1 2.8377838326246 2.8377838326246 2.8377838326246 8.0530170807055
105	84719 27 244 244 65 65 1 1.2569954668412 1.2569954668412 1.2569954668412 1.5800376036593
106	84746 27 244 244 65 65 1 2.1086724215689 2.1086724215689 2.1086724215689 4.4464993814851
123	84773 27 244 244 65 65 1 225.32331738135 225.32331738135 225.32331738135 50770.597355739
124	84800 14 244 244 65 65 1 33 33 33 1089
127	84814 27 244 244 65 65 1 11.395786660709 11.395786660709 11.395786660709 129.86395361638
128	84841 27 244 244 65 65 1 -4.493377150565 -4.493377150565 -4.493377150565 20.19043821722
129	84868 17 244 244 65 65 1 0.973 0.973 0.973 0.946729
130	84885 27 244 244 65 65 1 184.44351350344 184.44351350344 184.44351350344 34019.409673495
131	84912 16 244 244 65 65 1 29.8 29.8 29.8 888.04
132	84928 27 244 244 65 65 1 86.361698422923 86.361698422923 86.361698422923 7458.3429544919
133	84955 27 244 244 65 65 1 51.036456752215 51.036456752215 51.036456752215 2604.7199178207
134	84982 26 244 244 65 65 1 24.57971643654 24.57971643654 24.57971643654 604.16246010073
135	85008 27 244 244 65 65 1 2.0986936645955 2.0986936645955 2.0986936645955 4.4045150978133
136	85035 27 244 244 65 65 1 16.099621136426 16.099621136426 16.099621136426 259.19780073645
137	85062 27 244 244 65 65 1 2.3287047649178 2.3287047649178 2.3287047649178 5.4228658821507
138	85089 27 244 244 65 65 1 124.89075210999 124.89075210999 124.89075210999 15597.6999626
139	85116 16 244 244 65 65 1 29.8 29.8 29.8 888.04
140	85132 28 244 244 65 65 1 0.52096025796183 0.52096025796183 0.52096025796183 0.27139959037566
141	85160 26 244 244 65 65 1 1.515875496832 1.515875496832 1.515875496832 2.2978785218957
142	85186 27 244 244 65 65 1 77.879493632249 77.879493632249 77.879493632249 6065.2155284155
143	85213 27 244 244 65 65 1 56.338616084337 56.338616084337 56.338616084337 3174.0396622983
144	85240 27 244 244 65 65 1 18.833250263215 18.833250263215 18.833250263215 354.6913154769
145	85267 27 244 244 65 65 1 82.729886558875 82.729886558875 82.729886558875 6844.2341300444
146	85294 16 244 244 65 65 1 29.8 29.8 29.8 888.04
147	85310 27 244 244 65 65 1 1.7880372373993 1.7880372373993 1.7880372373993 3.1970771623264
148	85337 27 244 244 65 65 1 10.751173234024 10.751173234024 10.751173234024 115.58772590799
149	85364 27 244 244 65 65 1 2.3769054134852 2.3769054134852 2.3769054134852 5.6496793446553
150	85391 29 244 244 65 65 1 -0.19262843984065 -0.19262843984065 -0.19262843984065 0.037105715835441
151	85420 17 244 244 65 65 1 0.973 0.973 0.973 0.946729
152	85437 27 244 244 65 65 1 14.052535554439 14.052535554439 14.052535554439 197.47375550878
153	85464 27 244 244 65 65 1 1.9145166762941 1.9145166762941 1.9145166762941 3.6653741038084
154	85491 27 244 244 65 65 1 8.5280654438888 8.5280654438888 8.5280654438888 72.72790021525
155	85518 27 244 244 65 65 1 52.295308122025 52.295308122025 52.295308122025 2734.7992515775
156	85545 16 244 244 65 65 1 29.8 29.8 29.8 888.04
157	85561 27 244 244 65 65 1 9.4011521699489 9.4011521699489 9.4011521699489 88.381662122534
158	85588 26 244 244 65 65 1 2.078032121018 2.078032121018 2.078032121018 4.3182174959827
159	85614 27 244 244 65 65 1 6.3484191981819 6.3484191981819 6.3484191981819 40.302426315844
160	85641 27 244 244 65 65 1 34.267733031707 34.267733031707 34.267733031707 1174.2775271324
161	85668 16 244 244 65 65 1 29.8 29.8 29.8 888.04
162	85684 27 244 244 65 65 1 4.0397189360894 4.0397189360894 4.0397189360894 16.319329082599
vector 163 RSUExampleScenario.node[33].veinsmobility posx ETV
vector 164 RSUExampleScenario.node[33].veinsmobility posy ETV
vector 165 RSUExampleScenario.node[32].veinsmobility acceleration ETV
vector 166 RSUExampleScenario.node[32].veinsmobility co2emission ETV
55	85974 26 250 250 66 66 1 142.46958303306 142.46958303306 142.46958303306 20297.582089613
56	86000 13 250 250 66 66 1 33 33 33 1089
60	86013 26 250 250 66 66 1 12.415455016077 12.415455016077 12.415455016077 154.14352325624
63	86039 26 250 250 66 66 1 2.0433489016467 2.0433489016467 2.0433489016467 4.1752747338607
64	86065 26 250 250 66 66 1 7.9996673734843 7.9996673734843 7.9996673734843 63.994678086389
87	86091 26 250 250 66 66 1 107.16241982629 107.16241982629 107.16241982629 11483.784223027
88	86117 26 250 250 66 66 1 38.033427545261 38.033427545261 38.033427545261 1446.5416108406
94	86143 26 250 250 66 66 1 5.6831794532378 5.6831794532378 5.6831794532378 32.298528697705
95	86169 26 250 250 66 66 1 1.7245153927547 1.7245153927547 1.7245153927547 2.9739533398479
96	86195 26 250 250 66 66 1 3.7630895278971 3.7630895278971 3.7630895278971 14.160842794969
98	86221 26 250 250 66 66 1 97.795085909854 97.795085909854 97.795085909854 9563.8788281158
99	86247 26 250 250 66 66 1 43.889536386858 43.889536386858 43.889536386858 1926.2914042533
104	86273 27 250 250 66 66 1 4.1933358446147 4.1933358446147 4.1933358446147 17.584065505731
105	86300 27 250 250 66 66 1 1.3555520119902 1.3555520119902 1.3555520119902 1.8375212572106
106	86327 26 250 250 66 66 1 2.689010806989 2.689010806989 2.689010806989 7.2307791201034
123	86353 27 250 250 66 66 1 234.35021679692 234.35021679692 234.35021679692 54920.024112764
124	86380 27 250 250 66 66 1 33.080033353373 33.080033353373 33.080033353373 1094.2886066602
127	86407 27 250 250 66 66 1 7.6522191029241 7.6522191029241 7.6522191029241 58.556457199157
128	86434 28 250 250 66 66 1 -3.7435675577844 -3.7435675577844 -3.7435675577844 14.014298059696
129	86462 17 250 250 66 66 1 0.973 0.973 0.973 0.946729
130	86479 27 250 250 66 66 1 210.21080625862 210.21080625862 210.21080625862 44188.583067898
131	86506 16 250 250 66 66 1 29.8 29.8 29.8 888.04
132	86522 27 250 250 66 66 1 88.874749731129 88.874749731129 88.874749731129 7898.7211397708
133	86549 27 250 250 66 66 1 49.465568194967 49.465568194967 49.465568194967 2446.8424368509
134	86576 27 250 250 66 66 1 26.653481098997 26.653481098997 26.653481098997 710.40805469457
135	86603 27 250 250 66 66 1 2.0737646624562 2.0737646624562 2.0737646624562 4.3004998752523
136	86630 27 250 250 66 66 1 17.465748331392 17.465748331392 17.465748331392 305.05236477553
137	86657 27 250 250 66 66 1 3.6571775046253 3.6571775046253 3.6571775046253 13.374947300337
138	86684 27 250 250 66 66 1 144.85188991377 144.85188991377 144.85188991377 20982.070011591
139	86711 16 250 250 66 66 1 29.8 29.8 29.8 888.04
140	86727 27 250 250 66 66 1 1.3284727397075 1.3284727397075 1.3284727397075 1.764839820146
141	86754 27 250 250 66 66 1 2.4618299239774 2.4618299239774 2.4618299239774 6.0606065745905
142	86781 27 250 250 66 66 1 80.095574755033 80.095574755033 80.095574755033 6415.3010953391
143	86808 27 250 250 66 66 1 54.953361248374 54.953361248374 54.953361248374 3019.8719124943
144	86835 27 250 250 66 66 1 20.901700646927 20.901700646927 20.901700646927 436.88108993375
145	86862 27 250 250 66 66 1 97.909003877241 97.909003877241 97.909003877241 9586.1730402336
146	86889 16 250 250 66 66 1 29.8 29.8 29.8 888.04
147	86905 27 250 250 66 66 1 2.0684503837116 2.0684503837116 2.0684503837116 4.2784869898767
148	86932 27 250 250 66 66 1 13.381286622071 13.381286622071 13.381286622071 179.05883166202
149	86959 27 250 250 66 66 1 2.9850108109005 2.9850108109005 2.9850108109005 8.9102895411926
150	86986 28 250 250 66 66 1 0.60810539741524 0.60810539741524 0.60810539741524 0.36979217436554
151	87014 27 250 250 66 66 1 1.6939174369767 1.6939174369767 1.6939174369767 2.8693562832936
152	87041 26 250 250 66 66 1 16.10114471559 16.10114471559 16.10114471559 259.24686115239
153	87067 27 250 250 66 66 1 2.0486091611511 2.0486091611511 2.0486091611511 4.1967994951522
154	87094 27 250 250 66 66 1 10.221698053315 10.221698053315 10.221698053315 104.48311109315
155	87121 27 250 250 66 66 1 62.747257780337 62.747257780337 62.747257780337 3937.2183589521
156	87148 16 250 250 66 66 1 29.8 29.8 29.8 888.04
157	87164 27 250 250 66 66 1 11.275620489318 11.275620489318 11.275620489318 127.13961741914
158	87191 27 250 250 66 66 1 1.8744683193695 1.8744683193695 1.8744683193695 3.5136314803198
159	87218 26 250 250 66 66 1 6.880094476001 6.880094476001 6.880094476001 47.335699998699
160	87244 27 250 250 66 66 1 39.417976237507 39.417976237507 39.417976237507 1553.7768506606
161	87271 16 250 250 66 66 1 29.8 29.8 29.8 888.04
162	87287 27 250 250 66 66 1 5.9866894897879 5.9866894897879 5.9866894897879 35.840451047137
163	87314 27 250 250 66 66 1 30.250269536443 30.250269536443 30.250269536443 915.07880702746
164	87341 16 250 250 66 66 1 29.8 29.8 29.8 888.04
165	87357 27 250 250 66 66 1 1.9469705536985 1.9469705536985 1.9469705536985 3.790694336969
166	87384 27 250 250 66 66 1 4.2276930998995 4.2276930998995 4.2276930998995 17.873388946938
vector 167 RSUExampleScenario.node[33].veinsmobility speed ETV
55	87474 26 255 255 67 67 1 155.99210438719 155.99210438719 155.99210438719 24333.536631144
56	87500 13 255 255 67 67 1 33 33 33 1089
60	87513 26 255 255 67 67 1 14.511783149184 14.511783149184 14.511783149184 210.59185016896
63	87539 26 255 255 67 67 1 2.0963281331072 2.0963281331072 2.0963281331072 4.3945916416566
64	87565 26 255 255 67 67 1 9.4239358063301 9.4239358063301 9.4239358063301 88.81056608183
87	87591 26 255 255 67 67 1 112.93294149496 112.93294149496 112.93294149496 12753.849274704
88	87617 26 255 255 67 67 1 34.425776516938 34.425776516938 34.425776516938 1185.1340887941
94	87643 26 255 255 67 67 1 7.6826336009862 7.6826336009862 7.6826336009862 59.022859047002
95	87669 26 255 255 67 67 1 1.9994541477483 1.9994541477483 1.9994541477483 3.997816888948
96	87695 25 255 255 67 67 1 5.224518282648 5.224518282648 5.224518282648 27.295591285723
98	87720 26 255 255 67 67 1 99.281157113603 99.281157113603 99.281157113603 9856.748157816
99	87746 26 255 255 67 67 1 42.960604995126 42.960604995126 42.960604995126 1845.6135815472
104	87772 30 255 255 67 67 1 0.0051749379153484 0.0051749379153484 0.0051749379153484 2.6779982427711e-05
105	87802 28 255 255 67 67 1 -4.1881609066994 -4.1881609066994 -4.1881609066994 17.540691780405
106	87830 17 255 255 67 67 1 0.973 0.973 0.973 0.946729
123	87847 27 255 255 67 67 1 241.34612411031 241.34612411031 241.34612411031 58247.951623071
124	87874 27 255 255 67 67 1 37.106418141316 37.106418141316 37.106418141316 1376.8862672782
127	87901 27 255 255 67 67 1 8.9455689137279 8.9455689137279 8.9455689137279 80.023203190255
128	87928 27 255 255 67 67 1 1.2933498108038 1.2933498108038 1.2933498108038 1.6727537331062
129	87955 27 255 255 67 67 1 4.3959736668322 4.3959736668322 4.3959736668322 19.324584479482
130	87982 27 255 255 67 67 1 237.81963057444 237.81963057444 237.81963057444 56558.176686561
131	88009 16 255 255 67 67 1 29.8 29.8 29.8 888.04
132	88025 27 255 255 67 67 1 91.129678842134 91.129678842134 91.129678842134 8304.6183658704
133	88052 27 255 255 67 67 1 48.056029787885 48.056029787885 48.056029787885 2309.3819989741
134	88079 27 255 255 67 67 1 28.361484543056 28.361484543056 28.361484543056 804.373805486
135	88106 27 255 255 67 67 1 1.7080034440593 1.7080034440593 1.7080034440593 2.9172757649184
136	88133 27 255 255 67 67 1 16.260023836073 16.260023836073 16.260023836073 264.38837514966
137	88160 27 255 255 67 67 1 1.9414882855384 1.9414882855384 1.9414882855384 3.7693767628828
138	88187 27 255 255 67 67 1 166.76780890594 166.76780890594 166.76780890594 27811.502087288
139	88214 16 255 255 67 67 1 29.8 29.8 29.8 888.04
140	88230 28 255 255 67 67 1 -1.7156892190869 -1.7156892190869 -1.7156892190869 2.9435894964909
141	88258 17 255 255 67 67 1 0.973 0.973 0.973 0.946729
142	88275 27 255 255 67 67 1 82.476290463655 82.476290463655 82.476290463655 6802.3384886452
143	88302 27 255 255 67 67 1 53.465194630954 53.465194630954 53.465194630954 2858.5270369258
144	88329 27 255 255 67 67 1 22.800465787454 22.800465787454 22.800465787454 519.86124012488
145	88356 26 255 255 67 67 1 115.1170835341 115.1170835341 115.1170835341 13251.942921397
146	88382 16 255 255 67 67 1 29.8 29.8 29.8 888.04
147	88398 27 255 255 67 67 1 1.8987651405274 1.8987651405274 1.8987651405274 3.6053090588821
148	88425 27 255 255 67 67 1 13.738416418177 13.738416418177 13.738416418177 188.74408567922
149	88452 27 255 255 67 67 1 2.5154161000739 2.5154161000739 2.5154161000739 6.3273181565111
150	88479 29 255 255 67 67 1 -0.46959471082654 -0.46959471082654 -0.46959471082654 0.22051919243626
151	88508 17 255 255 67 67 1 0.973 0.973 0.973 0.946729
152	88525 26 255 255 67 67 1 18.05190563127 18.05190563127 18.05190563127 325.87129692029
153	88551 27 255 255 67 67 1 1.9507609156799 1.9507609156799 1.9507609156799 3.8054681501442
154	88578 27 255 255 67 67 1 11.011055155264 11.011055155264 11.011055155264 121.24333563227
155	88605 25 255 255 67 67 1 74.9322438396 74.9322438396 74.9322438396 5614.8411668372
156	88630 16 255 255 67 67 1 29.8 29.8 29.8 888.04
157	88646 27 255 255 67 67 1 12.920866994339 12.920866994339 12.920866994339 166.94880388539
158	88673 27 255 255 67 67 1 1.6452465050202 1.6452465050202 1.6452465050202 2.7068360622811
159	88700 27 255 255 67 67 1 7.0557559720348 7.0557559720348 7.0557559720348 49.783692336905
160	88727 27 255 255 67 67 1 46.587016849131 46.587016849131 46.587016849131 2170.3501389012
161	88754 16 255 255 67 67 1 29.8 29.8 29.8 888.04
162	88770 27 255 255 67 67 1 8.0352478808458 8.0352478808458 8.0352478808458 64.565208506637
163	88797 27 255 255 67 67 1 32.145385355472 32.145385355472 32.145385355472 1033.3257996518
164	88824 16 255 255 67 67 1 29.8 29.8 29.8 888.04
165	88840 27 255 255 67 67 1 2.0485583910579 2.0485583910579 2.0485583910579 4.1965914815737
166	88867 27 255 255 67 67 1 5.5125688329953 5.5125688329953 5.5125688329953 30.388415138511
167	88894 27 255 255 67 67 1 2.7778092959617 2.7778092959617 2.7778092959617 7.716224484731
vector 168 RSUExampleScenario.node[33].veinsmobility acceleration ETV
vector 169 RSUExampleScenario.node[33].veinsmobility co2emission ETV
55	89060 26 259 259 68 68 1 171.62823635591 171.62823635591 171.62823635591 29456.251514642
56	89086 13 259 259 68 68 1 33 33 33 1089
60	89099 26 259 259 68 68 1 16.604328512429 16.604328512429 16.604328512429 275.70372534865
63	89125 26 259 259 68 68 1 2.0925453632441 2.0925453632441 2.0925453632441 4.3787460972345
64	89151 26 259 259 68 68 1 10.707511657633 10.707511657633 10.707511657633 114.65080589834
87	89177 26 259 259 68 68 1 119.64045503385 119.64045503385 119.64045503385 14313.838480706
88	89203 15 259 259 68 68 1 29.8 29.8 29.8 888.04
94	89218 26 259 259 68 68 1 7.5179832402207 7.5179832402207 7.5179832402207 56.52007200024
95	89244 28 259 259 68 68 1 -0.16465036076543 -0.16465036076543 -0.16465036076543 0.027109741300186
96	89272 16 259 259 68 68 1 0.973 0.973 0.973 0.946729
98	89288 26 259 259 68 68 1 100.27299840847 100.27299840847 100.27299840847 10054.674209825
99	89314 26 259 259 68 68 1 42.340599355658 42.340599355658 42.340599355658 1792.7263537963
104	89340 27 259 259 68 68 1 2.2500663027589 2.2500663027589 2.2500663027589 5.0627983668112
105	89367 27 259 259 68 68 1 2.2448913648436 2.2448913648436 2.2448913648436 5.0395372399492
106	89394 27 259 259 68 68 1 2.4369237582776 2.4369237582776 2.4369237582776 5.938597403658
123	89421 27 259 259 68 68 1 249.84253075508 249.84253075508 249.84253075508 62421.290174101
124	89448 27 259 259 68 68 1 42.416829147169 42.416829147169 42.416829147169 1799.1873949001
127	89475 26 259 259 68 68 1 10.92065321169 10.92065321169 10.92065321169 119.26066656999
128	89501 26 259 259 68 68 1 1.975084297962 1.975084297962 1.975084297962 3.9009579840561
129	89527 27 259 259 68 68 1 6.9553067433305 6.9553067433305 6.9553067433305 48.376291893819
130	89554 27 259 259 68 68 1 267.19655191401 267.19655191401 267.19655191401 71393.997354735
131	89581 16 259 259 68 68 1 29.8 29.8 29.8 888.04
132	89597 27 259 259 68 68 1 92.497369963299 92.497369963299 92.497369963299 8555.7634501274
133	89624 27 259 259 68 68 1 47.201096852345 47.201096852345 47.201096852345 2227.9435440644
134	89651 27 259 259 68 68 1 30.260939367347 30.260939367347 30.260939367347 915.72445139426
135	89678 27 259 259 68 68 1 1.8994548242912 1.8994548242912 1.8994548242912 3.607928629523
136	89705 27 259 259 68 68 1 18.982177723395 18.982177723395 18.982177723395 360.32307112255
137	89732 27 259 259 68 68 1 1.7130799876381 1.7130799876381 1.7130799876381 2.9346430440463
138	89759 27 259 259 68 68 1 190.82122914194 190.82122914194 190.82122914194 36412.741491239
139	89786 16 259 259 68 68 1 29.8 29.8 29.8 888.04
140	89802 29 259 259 68 68 1 -0.22840829790025 -0.22840829790025 -0.22840829790025 0.05217035054969
141	89831 17 259 259 68 68 1 0.973 0.973 0.973 0.946729
142	89848 27 259 259 68 68 1 84.303140012804 84.303140012804 84.303140012804 7107.0194160184
143	89875 27 259 259 68 68 1 52.323245382564 52.323245382564 52.323245382564 2737.722007364
144	89902 27 259 259 68 68 1 25.057325176218 25.057325176218 25.057325176218 627.86954498673
145	89929 27 259 259 68 68 1 134.16111975497 134.16111975497 134.16111975497 17999.206053907
146	89956 16 259 259 68 68 1 29.8 29.8 29.8 888.04
147	89972 27 259 259 68 68 1 2.2568593887636 2.2568593887636 2.2568593887636 5.0934143006503
148	89999 26 259 259 68 68 1 17.40089462768 17.40089462768 17.40089462768 302.79113384363
149	90025 27 259 259 68 68 1 2.0486113686558 2.0486113686558 2.0486113686558 4.1968085397857
150	90052 29 259 259 68 68 1 -0.46680473141813 -0.46680473141813 -0.46680473141813 0.21790665727435
151	90081 17 259 259 68 68 1 0.973 0.973 0.973 0.946729
152	90098 27 259 259 68 68 1 19.918235361586 19.918235361586 19.918235361586 396.73609991955
153	90125 27 259 259 68 68 1 1.8663297303161 1.8663297303161 1.8663297303161 3.4831866622617
154	90152 27 259 259 68 68 1 11.759792482392 11.759792482392 11.759792482392 138.29271922891
155	90179 26 259 259 68 68 1 88.83615013839 88.83615013839 88.83615013839 7891.8615714107
156	90205 16 259 259 68 68 1 26.6 26.6 26.6 707.56
157	90221 27 259 259 68 68 1 14.698730055524 14.698730055524 14.698730055524 216.05266524518
158	90248 27 259 259 68 68 1 1.7778630611859 1.7778630611859 1.7778630611859 3.1607970643294
159	90275 27 259 259 68 68 1 8.4103256691147 8.4103256691147 8.4103256691147 70.733577860569
160	90302 27 259 259 68 68 1 55.622603577841 55.622603577841 55.622603577841 3093.8740287776
161	90329 16 259 259 68 68 1 29.8 29.8 29.8 888.04
162	90345 27 259 259 68 68 1 9.8300609346167 9.8300609346167 9.8300609346167 96.630097978277
163	90372 27 259 259 68 68 1 36.011004336685 36.011004336685 36.011004336685 1296.7924333368
164	90399 16 259 259 68 68 1 29.8 29.8 29.8 888.04
165	90415 27 259 259 68 68 1 1.7948130537709 1.7948130537709 1.7948130537709 3.2213538979865
166	90442 27 259 259 68 68 1 5.9239432930806 5.9239432930806 5.9239432930806 35.093104139635
167	90469 27 259 259 68 68 1 4.6774494738481 4.6774494738481 4.6774494738481 21.878533580402
168	90496 27 259 259 68 68 1 1.8996401778865 1.8996401778865 1.8996401778865 3.6086328054405
169	90523 27 259 259 68 68 1 3.4864923223212 3.4864923223212 3.4864923223212 12.155628713604
vector 170 RSUExampleScenario.node[34].veinsmobility posx ETV
vector 171 RSUExampleScenario.node[34].veinsmobility posy ETV
55	90674 26 265 265 69 69 1 189.24465378454 189.24465378454 189.24465378454 35813.538986031
56	90700 13 265 265 69 69 1 33 33 33 1089
60	90713 26 265 265 69 69 1 18.426291382059 18.426291382059 18.426291382059 339.52821409655
63	90739 26 265 265 69 69 1 1.8219628696307 1.8219628696307 1.8219628696307 3.3195486983129
64	90765 26 265 265 69 69 1 10.667685789045 10.667685789045 10.667685789045 113.79952009378
87	90791 25 265 265 69 69 1 128.1144224685 128.1144224685 128.1144224685 16413.305244437
88	90816 15 265 265 69 69 1 29.8 29.8 29.8 888.04
94	90831 25 265 265 69 69 1 9.209376710298 9.209376710298 9.209376710298 84.81261939218
95	90856 26 265 265 69 69 1 1.6913934700773 1.6913934700773 1.6913934700773 2.8608118706202
96	90882 26 265 265 69 69 1 5.3803946212437 5.3803946212437 5.3803946212437 28.948646280308
98	90908 26 265 265 69 69 1 103.11501355143 103.11501355143 103.11501355143 10632.706019712
99	90934 26 265 265 69 69 1 40.563810454806 40.563810454806 40.563810454806 1645.4227186134
104	90960 27 265 265 69 69 1 4.1690652090605 4.1690652090605 4.1690652090605 17.381104717399
105	90987 27 265 265 69 69 1 1.9189989063016 1.9189989063016 1.9189989063016 3.6825568023867
106	91014 27 265 265 69 69 1 3.2459137626098 3.2459137626098 3.2459137626098 10.5359561543
123	91041 27 265 265 69 69 1 260.10954871328 260.10954871328 260.10954871328 67656.977331828
124	91068 26 265 265 69 69 1 48.83390491133 48.83390491133 48.83390491133 2384.7502688888
127	91094 27 265 265 69 69 1 13.036383315987 13.036383315987 13.036383315987 169.94728996135
128	91121 27 265 265 69 69 1 2.1157301042974 2.1157301042974 2.1157301042974 4.4763138742303
129	91148 27 265 265 69 69 1 8.5906742969762 8.5906742969762 8.5906742969762 73.799684876727
130	91175 27 265 265 69 69 1 298.59875685094 298.59875685094 298.59875685094 89161.217592927
131	91202 16 265 265 69 69 1 29.8 29.8 29.8 888.04
132	91218 27 265 265 69 69 1 94.590045407904 94.590045407904 94.590045407904 8947.2766902693
133	91245 27 265 265 69 69 1 45.892981932753 45.892981932753 45.892981932753 2106.16579068
134	91272 27 265 265 69 69 1 32.286145245974 32.286145245974 32.286145245974 1042.3951748441
135	91299 26 265 265 69 69 1 2.025205878627 2.025205878627 2.025205878627 4.1014588508255
136	91325 27 265 265 69 69 1 21.534535616478 21.534535616478 21.534535616478 463.73622421734
137	91352 27 265 265 69 69 1 3.1149836820905 3.1149836820905 3.1149836820905 9.7031233396903
138	91379 27 265 265 69 69 1 217.04002854201 217.04002854201 217.04002854201 47106.373989516
139	91406 16 265 265 69 69 1 29.8 29.8 29.8 888.04
140	91422 27 265 265 69 69 1 1.4019036944524 1.4019036944524 1.4019036944524 1.9653339685193
141	91449 27 265 265 69 69 1 2.3154835898505 2.3154835898505 2.3154835898505 5.3614642548668
142	91476 27 265 265 69 69 1 86.169084592254 86.169084592254 86.169084592254 7425.111139467
143	91503 27 265 265 69 69 1 51.156858138998 51.156858138998 51.156858138998 2617.0241346536
144	91530 27 265 265 69 69 1 27.042901938067 27.042901938067 27.042901938067 731.31854523192
145	91557 27 265 265 69 69 1 155.09416531427 155.09416531427 155.09416531427 24054.20011453
146	91584 16 265 265 69 69 1 29.8 29.8 29.8 888.04
147	91600 27 265 265 69 69 1 1.9855767618492 1.9855767618492 1.9855767618492 3.9425150771957
148	91627 27 265 265 69 69 1 17.182202051181 17.182202051181 17.182202051181 295.22806732761
149	91654 27 265 265 69 69 1 2.5940865501619 2.5940865501619 2.5940865501619 6.729285029731
150	91681 28 265 265 69 69 1 0.54547518150615 0.54547518150615 0.54547518150615 0.29754317363916
151	91709 27 265 265 69 69 1 1.5777687024993 1.5777687024993 1.5777687024993 2.4893540785862
152	91736 27 265 265 69 69 1 21.778259112578 21.778259112578 21.778259112578 474.29256997457
153	91763 27 265 265 69 69 1 1.8600237509911 1.8600237509911 1.8600237509911 3.459688354251
154	91790 27 265 265 69 69 1 12.877236376928 12.877236376928 12.877236376928 165.82321670727
155	91817 27 265 265 69 69 1 104.76253807689 104.76253807689 104.76253807689 10975.189384312
156	91844 16 265 265 69 69 1 26.6 26.6 26.6 707.56
157	91860 27 265 265 69 69 1 16.841467861687 16.841467861687 16.841467861687 283.63503973623
158	91887 27 265 265 69 69 1 2.1427378061623 2.1427378061623 2.1427378061623 4.5913253059574
159	91914 27 265 265 69 69 1 11.060641478059 11.060641478059 11.060641478059 122.33778990616
160	91941 27 265 265 69 69 1 66.499908179016 66.499908179016 66.499908179016 4422.2377878175
161	91968 16 265 265 69 69 1 29.8 29.8 29.8 888.04
162	91984 27 265 265 69 69 1 11.679242759809 11.679242759809 11.679242759809 136.40471144256
163	92011 27 265 265 69 69 1 41.899999337672 41.899999337672 41.899999337672 1755.6099444969
164	92038 16 265 265 69 69 1 29.8 29.8 29.8 888.04
165	92054 27 265 265 69 69 1 1.8491818251926 1.8491818251926 1.8491818251926 3.4194734226228
166	92081 27 265 265 69 69 1 7.0254632796934 7.0254632796934 7.0254632796934 49.357134294321
167	92108 27 265 265 69 69 1 6.8569282062934 6.8569282062934 6.8569282062934 47.017464426262
168	92135 27 265 265 69 69 1 2.1794787324453 2.1794787324453 2.1794787324453 4.7501275451813
169	92162 27 265 265 69 69 1 5.0721922767301 5.0721922767301 5.0721922767301 25.72713449212
170	92189 27 265 265 69 69 1 30.620371758524 30.620371758524 30.620371758524 937.60716663021
171	92216 16 265 265 69 69 1 29.8 29.8 29.8 888.04
vector 172 RSUExampleScenario.node[34].veinsmobility speed ETV
55	92295 26 271 271 70 70 1 207.64146298975 207.64146298975 207.64146298975 43114.977152525
56	92321 13 271 271 70 70 1 33 33 33 1089
60	92334 26 271 271 70 70 1 16.934353831105 16.934353831105 16.934353831105 286.77233967707
63	92360 27 271 271 70 70 1 -1.4919375509539 -1.4919375509539 -1.4919375509539 2.2258776559464
64	92387 16 271 271 70 70 1 0.973 0.973 0.973 0.946729
87	92403 26 271 271 70 70 1 138.32182473845 138.32182473845 138.32182473845 19132.927198973
88	92429 15 271 271 70 70 1 29.8 29.8 29.8 888.04
94	92444 26 271 271 70 70 1 11.086657744312 11.086657744312 11.086657744312 122.91397993951
95	92470 26 271 271 70 70 1 1.8772810340137 1.8772810340137 1.8772810340137 3.5241840806676
96	92496 26 271 271 70 70 1 6.7865836799531 6.7865836799531 6.7865836799531 46.057718045006
98	92522 26 271 271 70 70 1 107.54864428347 107.54864428347 107.54864428347 11566.710887213
99	92548 26 271 271 70 70 1 37.791965310108 37.791965310108 37.791965310108 1428.2326420004
104	92574 27 271 271 70 70 1 6.1880623693523 6.1880623693523 6.1880623693523 38.292115886994
105	92601 27 271 271 70 70 1 2.0189971602918 2.0189971602918 2.0189971602918 4.0763495332662
106	92628 27 271 271 70 70 1 4.4413786386498 4.4413786386498 4.4413786386498 19.725844211854
123	92655 27 271 271 70 70 1 271.97691630829 271.97691630829 271.97691630829 73971.443004567
124	92682 26 271 271 70 70 1 56.25122874268 56.25122874268 56.25122874268 3164.2007350614
127	92708 27 271 271 70 70 1 14.820311631198 14.820311631198 14.820311631198 219.64163684583
128	92735 27 271 271 70 70 1 1.7839283152111 1.7839283152111 1.7839283152111 3.1824002338119
129	92762 27 271 271 70 70 1 8.4972876654013 8.4972876654013 8.4972876654013 72.203897668581
132	92789 27 271 271 70 70 1 97.947654345419 97.947654345419 97.947654345419 9593.7429917696
133	92816 27 271 271 70 70 1 43.794167060795 43.794167060795 43.794167060795 1917.9290685488
137	92843 26 271 271 70 70 1 3.899399410503 3.899399410503 3.899399410503 15.205315762631
138	92869 27 271 271 70 70 1 245.18558009499 245.18558009499 245.18558009499 60115.968686518
139	92896 16 271 271 70 70 1 29.8 29.8 29.8 888.04
140	92912 28 271 271 70 70 1 0.78441572841249 0.78441572841249 0.78441572841249 0.6153080349809
141	92940 26 271 271 70 70 1 2.040743124281 2.040743124281 2.040743124281 4.1646324993001
142	92966 27 271 271 70 70 1 88.871794835597 88.871794835597 88.871794835597 7898.1959173004
143	92993 27 271 271 70 70 1 49.467415276864 49.467415276864 49.467415276864 2447.0251741738
144	93020 27 271 271 70 70 1 29.098279420632 29.098279420632 29.098279420632 846.70986524117
145	93047 27 271 271 70 70 1 177.99580104526 177.99580104526 177.99580104526 31682.505189745
146	93074 16 271 271 70 70 1 29.8 29.8 29.8 888.04
147	93090 27 271 271 70 70 1 2.0553774825647 2.0553774825647 2.0553774825647 4.2245765958339
148	93117 27 271 271 70 70 1 19.203428932645 19.203428932645 19.203428932645 368.77168277114
149	93144 27 271 271 70 70 1 3.6769213733627 3.6769213733627 3.6769213733627 13.519750785891
150	93171 27 271 271 70 70 1 1.0828348232007 1.0828348232007 1.0828348232007 1.1725312543361
151	93198 27 271 271 70 70 1 2.2515080789202 2.2515080789202 2.2515080789202 5.0692886294428
152	93225 27 271 271 70 70 1 23.707422546352 23.707422546352 23.707422546352 562.04188379128
153	93252 27 271 271 70 70 1 1.9291634337744 1.9291634337744 1.9291634337744 3.7216715542122
154	93279 27 271 271 70 70 1 14.506808139159 14.506808139159 14.506808139159 210.44748238637
155	93306 27 271 271 70 70 1 122.57487122126 122.57487122126 122.57487122126 15024.599054908
156	93333 16 271 271 70 70 1 26.6 26.6 26.6 707.56
157	93349 27 271 271 70 70 1 18.723519471199 18.723519471199 18.723519471199 350.57018138838
158	93376 27 271 271 70 70 1 1.8820516095124 1.8820516095124 1.8820516095124 3.5421182608683
159	93403 27 271 271 70 70 1 11.112098832914 11.112098832914 11.112098832914 123.47874047244
160	93430 27 271 271 70 70 1 79.215839049307 79.215839049307 79.215839049307 6275.1491562857
161	93457 16 271 271 70 70 1 29.8 29.8 29.8 888.04
162	93473 27 271 271 70 70 1 13.598271201757 13.598271201757 13.598271201757 184.91297967654
163	93500 27 271 271 70 70 1 49.776189774506 49.776189774506 49.776189774506 2477.6690684676
164	93527 16 271 271 70 70 1 29.8 29.8 29.8 888.04
165	93543 27 271 271 70 70 1 1.9190284419479 1.9190284419479 1.9190284419479 3.6826701610049
166	93570 27 271 271 70 70 1 8.2872750817995 8.2872750817995 8.2872750817995 68.678928281414
167	93597 27 271 271 70 70 1 8.6611686088611 8.6611686088611 8.6611686088611 75.01584167112
168	93624 27 271 271 70 70 1 1.8042404025677 1.8042404025677 1.8042404025677 3.2552834302575
169	93651 27 271 271 70 70 1 5.3539017392758 5.3539017392758 5.3539017392758 28.66426383382
170	93678 26 271 271 70 70 1 33.26645601753 33.26645601753 33.26645601753 1106.6570959662
171	93704 16 271 271 70 70 1 29.8 29.8 29.8 888.04
172	93720 27 271 271 70 70 1 3.4792568159787 3.4792568159787 3.4792568159787 12.105227991534
vector 173 RSUExampleScenario.node[35].veinsmobility posx ETV
vector 174 RSUExampleScenario.node[35].veinsmobility posy ETV
vector 175 RSUExampleScenario.node[34].veinsmobility acceleration ETV
vector 176 RSUExampleScenario.node[34].veinsmobility co2emission ETV
55	94010 26 276 276 71 71 1 222.10463278718 222.10463278718 222.10463278718 49330.467905526
56	94036 13 276 276 71 71 1 33 33 33 1089
60	94049 25 276 276 71 71 1 12.43859379368 12.43859379368 12.43859379368 154.71861556417
63	94074 27 276 276 71 71 1 -4.4957600374254 -4.4957600374254 -4.4957600374254 20.211858314112
64	94101 16 276 276 71 71 1 0.973 0.973 0.973 0.946729
87	94117 26 276 276 71 71 1 150.46109278936 150.46109278936 150.46109278936 22638.540443368
88	94143 15 276 276 71 71 1 29.8 29.8 29.8 888.04
94	94158 26 276 276 71 71 1 13.027968802923 13.027968802923 13.027968802923 169.72797112994
95	94184 26 276 276 71 71 1 1.9413110586116 1.9413110586116 1.9413110586116 3.7686886262877
96	94210 26 276 276 71 71 1 8.0379513020667 8.0379513020667 8.0379513020667 64.608661134396
98	94236 26 276 276 71 71 1 113.61970814604 113.61970814604 113.61970814604 12909.43807919
99	94262 26 276 276 71 71 1 33.998032850856 33.998032850856 33.998032850856 1155.8662377279
104	94288 27 276 276 71 71 1 8.0067534754673 8.0067534754673 8.0067534754673 64.108101216907
105	94315 26 276 276 71 71 1 1.818691106115 1.818691106115 1.818691106115 3.3076373394618
106	94341 26 276 276 71 71 1 5.053060191697 5.053060191697 5.053060191697 25.533417300913
123	94367 27 276 276 71 71 1 285.40244857782 285.40244857782 285.40244857782 81454.557654214
124	94394 27 276 276 71 71 1 64.642434261014 64.642434261014 64.642434261014 4178.6443071895
127	94421 27 276 276 71 71 1 16.752934578642 16.752934578642 16.752934578642 280.66081699626
128	94448 27 276 276 71 71 1 1.9326229474437 1.9326229474437 1.9326229474437 3.7350314569861
129	94475 27 276 276 71 71 1 10.155399607869 10.155399607869 10.155399607869 103.13214119551
132	94502 27 276 276 71 71 1 99.281159394039 99.281159394039 99.281159394039 9856.7486106245
133	94529 27 276 276 71 71 1 42.960603569644 42.960603569644 42.960603569644 1845.6134590681
137	94556 31 276 276 71 71 1 2.7573963993734e-05 2.7573963993734e-05 2.7573963993734e-05 7.6032349032774e-10
138	94587 27 276 276 71 71 1 275.46094334927 275.46094334927 275.46094334927 75878.731310867
139	94614 16 276 276 71 71 1 29.8 29.8 29.8 888.04
140	94630 27 276 276 71 71 1 -3.899371836539 -3.899371836539 -3.899371836539 15.205100719594
141	94657 17 276 276 71 71 1 0.973 0.973 0.973 0.946729
142	94674 27 276 276 71 71 1 91.109892986292 91.109892986292 91.109892986292 8301.0125999737
143	94701 27 276 276 71 71 1 48.068397770359 48.068397770359 48.068397770359 2310.5708642095
144	94728 27 276 276 71 71 1 31.231542139334 31.231542139334 31.231542139334 975.40922440098
145	94755 27 276 276 71 71 1 202.80987245114 202.80987245114 202.80987245114 41131.844363648
146	94782 16 276 276 71 71 1 29.8 29.8 29.8 888.04
147	94798 27 276 276 71 71 1 2.1332627187018 2.1332627187018 2.1332627187018 4.5508098270028
[...]
129	96160 27 280 280 72 72 1 11.620275539933 11.620275539933 11.620275539933 135.03080362397
132	96187 27 280 280 72 72 1 100.31062657453 100.31062657453 100.31062657453 10062.221803774
133	96214 27 280 280 72 72 1 42.317074742154 42.317074742154 42.317074742154 1790.7348147331
137	96241 26 280 280 72 72 1 2.343254897124 2.343254897124 2.343254897124 5.4908435128958
138	96267 27 280 280 72 72 1 307.77355334484 307.77355334484 307.77355334484 94724.560138508
139	96294 16 280 280 72 72 1 29.8 29.8 29.8 888.04
140	96310 25 280 280 72 72 1 2.34322732316 2.34322732316 2.34322732316 5.4907142880038
141	96335 27 280 280 72 72 1 2.5475049190206 2.5475049190206 2.5475049190206 6.489781312434
142	96362 27 280 280 72 72 1 92.505606420336 92.505606420336 92.505606420336 8557.2872191941
143	96389 27 280 280 72 72 1 47.195948307996 47.195948307996 47.195948307996 2227.457536691
144	96416 26 280 280 72 72 1 33.22469416241 33.22469416241 33.22469416241 1103.8803021857
145	96442 27 280 280 72 72 1 229.62353578774 229.62353578774 229.62353578774 52726.968187665
146	96469 16 280 280 72 72 1 29.8 29.8 29.8 888.04
147	96485 27 280 280 72 72 1 1.9931520230765 1.9931520230765 1.9931520230765 3.9726549870941
148	96512 27 280 280 72 72 1 22.060324740393 22.060324740393 22.060324740393 486.65792765162
149	96539 27 280 280 72 72 1 1.7548029774605 1.7548029774605 1.7548029774605 3.0793334897044
150	96566 29 280 280 72 72 1 -0.19908337282913 -0.19908337282913 -0.19908337282913 0.039634189337022
151	96595 17 280 280 72 72 1 0.973 0.973 0.973 0.946729
152	96612 27 280 280 72 72 1 27.785844760918 27.785844760918 27.785844760918 772.05316907782
153	96639 26 280 280 72 72 1 2.067515068904 2.067515068904 2.067515068904 4.2746185601453
154	96665 26 280 280 72 72 1 18.27699900761 18.27699900761 18.27699900761 334.04869272417
155	96691 27 280 280 72 72 1 164.48123710407 164.48123710407 164.48123710407 27054.077359284
156	96718 16 280 280 72 72 1 26.6 26.6 26.6 707.56
157	96734 27 280 280 72 72 1 22.840119179254 22.840119179254 22.840119179254 521.67104412254
158	96761 27 280 280 72 72 1 1.9468199998094 1.9468199998094 1.9468199998094 3.7901081116578
159	96788 27 280 280 72 72 1 14.028714163483 14.028714163483 14.028714163483 196.8048210807
160	96815 27 280 280 72 72 1 110.52401090372 110.52401090372 110.52401090372 12215.556986245
161	96842 16 280 280 72 72 1 29.8 29.8 29.8 888.04
162	96858 27 280 280 72 72 1 17.514993283296 17.514993283296 17.514993283296 306.7749897139
163	96885 27 280 280 72 72 1 71.059419002612 71.059419002612 71.059419002612 5049.4410289887
164	96912 16 280 280 72 72 1 29.8 29.8 29.8 888.04
165	96928 27 280 280 72 72 1 2.0033997564833 2.0033997564833 2.0033997564833 4.0136105842773
166	96955 27 280 280 72 72 1 10.907867473052 10.907867473052 10.907867473052 118.98157280966
167	96982 27 280 280 72 72 1 12.390091475861 12.390091475861 12.390091475861 153.5143667802
168	97009 27 280 280 72 72 1 1.8353545038751 1.8353545038751 1.8353545038751 3.3685261548947
169	97036 27 280 280 72 72 1 7.3637985691867 7.3637985691867 7.3637985691867 54.225529367555
170	97063 26 280 280 72 72 1 44.30198681428 44.30198681428 44.30198681428 1962.6660356927
171	97089 16 280 280 72 72 1 29.8 29.8 29.8 888.04
172	97105 27 280 280 72 72 1 7.3849699125471 7.3849699125471 7.3849699125471 54.537780609226
173	97132 26 280 280 72 72 1 31.35888266381 31.35888266381 31.35888266381 983.37952192262
174	97158 16 280 280 72 72 1 29.8 29.8 29.8 888.04
175	97174 27 280 280 72 72 1 1.9423655304499 1.9423655304499 1.9423655304499 3.7727838538799
176	97201 27 280 280 72 72 1 4.9604364055502 4.9604364055502 4.9604364055502 24.605929333508
177	97228 25 280 280 72 72 1 50.3861584946 50.3861584946 50.3861584946 2538.7649678429
178	97253 27 280 280 72 72 1 73.524483092819 73.524483092819 73.524483092819 5405.8496140663
179	97280 26 280 280 72 72 1 2.133112465999 2.133112465999 2.133112465999 4.5501687926004
vector 180 RSUExampleScenario.node[35].veinsmobility acceleration ETV
vector 181 RSUExampleScenario.node[35].veinsmobility co2emission ETV
vector 182 RSUExampleScenario.node[36].veinsmobility speed ETV
55	97508 26 286 286 73 73 1 238.88604655187 238.88604655187 238.88604655187 57066.543237181
56	97534 26 286 286 73 73 1 35.568824251588 35.568824251588 35.568824251588 1265.1412586404
60	97560 26 286 286 73 73 1 8.0288267138184 8.0288267138184 8.0288267138184 64.462058400525
63	97586 28 286 286 73 73 1 0.090232920138468 0.090232920138468 0.090232920138468 0.0081419798767151
64	97614 26 286 286 73 73 1 1.7197176634786 1.7197176634786 1.7197176634786 2.9574288420804
87	97640 26 286 286 73 73 1 180.48161728818 180.48161728818 180.48161728818 32573.614178955
88	97666 15 286 286 73 73 1 29.8 29.8 29.8 888.04
94	97681 26 286 286 73 73 1 16.866509497262 16.866509497262 16.866509497262 284.47914262123
95	97707 26 286 286 73 73 1 1.9600574534549 1.9600574534549 1.9600574534549 3.8418252208443
96	97733 26 286 286 73 73 1 10.334187968236 10.334187968236 10.334187968236 106.79544096283
98	97759 26 286 286 73 73 1 133.00091706602 133.00091706602 133.00091706602 17689.243940403
99	97785 13 286 286 73 73 1 33 33 33 1089
104	97798 27 286 286 73 73 1 10.724035961643 10.724035961643 10.724035961643 115.00494730662
105	97825 28 286 286 73 73 1 0.88637603406096 0.88637603406096 0.88637603406096 0.78566247375763
106	97853 27 286 286 73 73 1 4.0320923155686 4.0320923155686 4.0320923155686 16.257768441267
132	97880 27 286 286 73 73 1 103.21014026945 103.21014026945 103.21014026945 10652.33305444
133	97907 27 286 286 73 73 1 40.504338534971 40.504338534971 40.504338534971 1640.6014401555
137	97934 27 286 286 73 73 1 4.3280500468937 4.3280500468937 4.3280500468937 18.732017208416
140	97961 27 286 286 73 73 1 1.9847951497696 1.9847951497696 1.9847951497696 3.9394117865491
141	97988 27 286 286 73 73 1 3.3965351277628 3.3965351277628 3.3965351277628 11.536450874126
142	98015 27 286 286 73 73 1 94.632018041474 94.632018041474 94.632018041474 8955.218838602
143	98042 27 286 286 73 73 1 45.866745170464 45.866745170464 45.866745170464 2103.7583125323
145	98069 27 286 286 73 73 1 258.52846487217 258.52846487217 258.52846487217 66836.967149163
146	98096 16 286 286 73 73 1 29.8 29.8 29.8 888.04
149	98112 26 286 286 73 73 1 3.207356889508 3.207356889508 3.207356889508 10.287138216674
150	98138 27 286 286 73 73 1 1.4525539120475 1.4525539120475 1.4525539120475 2.1099128674044
151	98165 27 286 286 73 73 1 2.3905558636113 2.3905558636113 2.3905558636113 5.7147573370464
152	98192 27 286 286 73 73 1 29.774640709463 29.774640709463 29.774640709463 886.52922937763
153	98219 27 286 286 73 73 1 1.9887959485455 1.9887959485455 1.9887959485455 3.9553093249509
154	98246 27 286 286 73 73 1 19.255749871965 19.255749871965 19.255749871965 370.7839031317
155	98273 26 286 286 73 73 1 188.2876836495 188.2876836495 188.2876836495 35452.251814093
156	98299 16 286 286 73 73 1 26.6 26.6 26.6 707.56
157	98315 27 286 286 73 73 1 24.648735459666 24.648735459666 24.648735459666 607.56015976058
158	98342 27 286 286 73 73 1 1.8086162804114 1.8086162804114 1.8086162804114 3.2710928497691
159	98369 26 286 286 73 73 1 14.42628832091 14.42628832091 14.42628832091 208.11779471803
160	98395 27 286 286 73 73 1 129.08405337757 129.08405337757 129.08405337757 16662.692836383
161	98422 16 286 286 73 73 1 29.8 29.8 29.8 888.04
162	98438 27 286 286 73 73 1 19.541256680143 19.541256680143 19.541256680143 381.86071263924
163	98465 27 286 286 73 73 1 84.444960053281 84.444960053281 84.444960053281 7130.9512784002
164	98492 16 286 286 73 73 1 29.8 29.8 29.8 888.04
165	98508 27 286 286 73 73 1 2.0262633968471 2.0262633968471 2.0262633968471 4.1057433534023
166	98535 27 286 286 73 73 1 12.284576640432 12.284576640432 12.284576640432 150.91082323465
167	98562 27 286 286 73 73 1 14.279832785095 14.279832785095 14.279832785095 203.91362437026
168	98589 27 286 286 73 73 1 1.8897413092339 1.8897413092339 1.8897413092339 3.5711222158252
169	98616 27 286 286 73 73 1 8.5712835690147 8.5712835690147 8.5712835690147 73.466902020461
170	98643 27 286 286 73 73 1 52.734786980293 52.734786980293 52.734786980293 2780.9577578569
171	98670 16 286 286 73 73 1 29.8 29.8 29.8 888.04
172	98686 27 286 286 73 73 1 9.3081349992807 9.3081349992807 9.3081349992807 86.641377164835
173	98713 27 286 286 73 73 1 34.573325608523 34.573325608523 34.573325608523 1195.314843633
174	98740 16 286 286 73 73 1 29.8 29.8 29.8 888.04
175	98756 27 286 286 73 73 1 1.9231650867336 1.9231650867336 1.9231650867336 3.6985639508312
176	98783 27 286 286 73 73 1 5.9476855350427 5.9476855350427 5.9476855350427 35.374963223757
177	98810 27 286 286 73 73 1 52.204559877801 52.204559877801 52.204559877801 2725.3160720349
178	98837 27 286 286 73 73 1 72.387814726349 72.387814726349 72.387814726349 5239.9957208562
179	98864 27 286 286 73 73 1 4.1720697251763 4.1720697251763 4.1720697251763 17.406165791732
180	98891 27 286 286 73 73 1 2.0389572591772 2.0389572591772 2.0389572591772 4.1573467047515
181	98918 26 286 286 73 73 1 3.368077089861 3.368077089861 3.368077089861 11.343943283246
182	98944 27 286 286 73 73 1 3.0433848098515 3.0433848098515 3.0433848098515 9.2621911008351
vector 183 RSUExampleScenario.node[37].veinsmobility posx ETV
vector 184 RSUExampleScenario.node[37].veinsmobility posy ETV
vector 185 RSUExampleScenario.node[36].veinsmobility acceleration ETV
vector 186 RSUExampleScenario.node[36].veinsmobility co2emission ETV
vector 187 RSUExampleScenario.node[38].veinsmobility posx ETV
vector 188 RSUExampleScenario.node[38].veinsmobility posy ETV
vector 189 RSUExampleScenario.node[37].veinsmobility speed ETV
154	99421 54 292 297 74 75 2 20.580611652486 22.333816183848 42.914427836335 922.36092132438
153	99475 54 292 297 74 75 2 1.9596649459005 1.9766030369326 3.9362679828331 7.7472462658024
152	99529 54 292 297 74 75 2 31.734305655364 33.710908692296 65.44521434766 2143.4915202884
146	99583 32 292 297 74 75 2 29.8 29.8 59.6 1776.08
145	99615 54 292 297 74 75 2 289.43710935412 322.25433015803 611.69143951216 187621.69357687
vector 190 RSUExampleScenario.node[37].veinsmobility acceleration ETV
vector 191 RSUExampleScenario.node[37].veinsmobility co2emission ETV
vector 192 RSUExampleScenario.node[38].veinsmobility speed ETV
vector 193 RSUExampleScenario.node[39].veinsmobility posx ETV
vector 194 RSUExampleScenario.node[39].veinsmobility posy ETV
vector 195 RSUExampleScenario.node[38].veinsmobility acceleration ETV
vector 196 RSUExampleScenario.node[38].veinsmobility co2emission ETV
159	100134 108 292 307 74 77 4 17.296087712422 22.706113116677 79.097298085361 1579.1495066069
158	100242 107 292 307 74 77 4 1.9690784617444 2.1123250864074 8.2172749610781 16.893150725608
157	100349 107 292 307 74 77 4 26.69169823773 32.866010420744 119.0960008654 3566.9641502435
156	100456 64 292 307 74 77 4 26.6 26.6 106.4 2830.24
155	100520 108 292 307 74 77 4 214.04654006394 303.65906305267 1031.3167838297 270368.4613163
vector 197 RSUExampleScenario.node[39].veinsmobility speed ETV
64	100691 130 292 313 74 78 5 6.7290935422247 11.158059699782 42.711296167146 376.99964472484
63	100821 130 292 313 74 78 5 1.7597234767606 2.0695944199665 9.7107327001309 18.928041451707
60	100951 129 292 313 74 78 5 10.098421133785 17.739559413949 69.449607290662 1000.9198179223
56	101080 128 292 313 74 78 5 40.40789503178 70.032178683623 271.08832166 15249.663015271
55	101208 130 292 313 74 78 5 246.62833111063 294.02578494017 1343.6165467769 362473.83320573
vector 198 RSUExampleScenario.node[40].veinsmobility posx ETV
vector 199 RSUExampleScenario.node[40].veinsmobility posy ETV
vector 200 RSUExampleScenario.node[39].veinsmobility acceleration ETV
vector 201 RSUExampleScenario.node[39].veinsmobility co2emission ETV
96	101601 155 292 318 74 79 6 11.427791543772 17.28544626056 87.713714922362 1308.077083369
95	101756 155 292 318 74 79 6 1.8426665641298 2.0144133993937 11.641519495403 22.604606431529
94	101911 156 292 318 74 79 6 18.807151680501 28.508028992665 142.23197178521 3437.7158157962
88	102067 90 292 318 74 79 6 29.8 29.8 178.8 5328.24
87	102157 156 292 318 74 79 6 198.47024259708 317.47585696101 1528.5190147329 399344.48108495
vector 202 RSUExampleScenario.node[40].veinsmobility speed ETV
vector 203 RSUExampleScenario.node[40].veinsmobility acceleration ETV
vector 204 RSUExampleScenario.node[40].veinsmobility co2emission ETV
vector 205 RSUExampleScenario.node[41].veinsmobility posx ETV
vector 206 RSUExampleScenario.node[41].veinsmobility posy ETV
169	102639 241 292 334 74 82 9 9.7288869681394 20.923467224693 136.5699882838 2199.3038282429
168	102880 242 292 334 74 82 9 1.6669319340633 2.1626893849438 17.716716683898 35.03513750856
167	103122 241 292 334 74 82 9 16.29723049033 31.996549468993 216.34291393592 5437.1524906493
164	103363 144 292 334 74 82 9 29.8 29.8 268.2 7992.36
163	103507 243 292 334 74 82 9 99.765518743405 292.68669862186 1682.3036778171 349642.94872684
vector 207 RSUExampleScenario.node[41].veinsmobility speed ETV
vector 208 RSUExampleScenario.node[41].veinsmobility acceleration ETV
vector 209 RSUExampleScenario.node[41].veinsmobility co2emission ETV
166	103952 256 292 343 74 84 11 0.973 15.290560202767 77.285189675467 832.83939847279
165	104208 287 292 343 74 84 11 -4.5 2.3096350575309 -1.2579584244342 87.783029422796
162	104495 296 292 343 74 84 11 8.3848884381804 23.603905509731 173.2581923512 2973.0113400165
161	104791 234 292 343 74 84 11 29.8 69.263226390617 460.47841945226 21002.701025651
160	105025 297 292 343 74 84 11 149.91486021975 292.79549761126 2527.8197960335 600356.80523891
vector 210 RSUExampleScenario.node[42].veinsmobility posx ETV
vector 211 RSUExampleScenario.node[42].veinsmobility posy ETV
vector 212 RSUExampleScenario.node[42].veinsmobility speed ETV
141	105509 350 292 355 74 86 13 4.1540820593096 19.485814692704 137.27744449058 1721.322380086
140	105859 351 292 355 74 86 13 1.5845872222038 2.1859461539309 24.415640745427 46.170680897128
137	106210 350 292 355 74 86 13 6.1628662360412 28.743690792321 223.2334431674 4487.6190212162
133	106560 229 292 355 74 86 13 29.8 37.692276001623 399.40431080414 12339.17377463
132	106789 350 292 355 74 86 13 107.70809964937 313.34158195356 2457.9401459185 520232.36719974
176	107139 350 292 355 74 86 13 3.2779087298942 22.168182975819 157.11509594494 2252.5781278574
175	107489 351 292 355 74 86 13 0.35122424154957 2.1889936292358 22.410546972917 42.114121461332
172	107840 348 292 355 74 86 13 11.219110620442 31.718681972198 269.00248173369 6114.7389492419
171	108188 208 292 355 74 86 13 26.6 29.8 355.4 9739.72
170	108396 350 292 355 74 86 13 63.132756619596 311.84057311118 2189.8604389465 447472.25253338
106	108746 321 292 355 74 86 13 0.973 11.320812209693 83.212352087543 710.0061248181
105	109067 354 292 355 74 86 13 -3.5380018832379 2.1371340180282 8.6824702437062 50.841550053691
104	109421 350 292 355 74 86 13 9.7530049492576 19.40650620535 179.39890826938 2581.5074469579
99	109771 245 292 355 74 86 13 33 71.934205852966 536.40330853129 24215.130838505
98	110016 338 292 355 74 86 13 144.06878982928 297.06893852326 2883.4331184918 666943.46696542
vector 213 RSUExampleScenario.node[43].veinsmobility posx ETV
vector 214 RSUExampleScenario.node[43].veinsmobility posy ETV
vector 215 RSUExampleScenario.node[42].veinsmobility acceleration ETV
vector 216 RSUExampleScenario.node[42].veinsmobility co2emission ETV
vector 217 RSUExampleScenario.node[43].veinsmobility speed ETV
181	110680 405 292 364 74 88 15 4.2388943559309 22.083782623243 189.77362343604 2837.3368211022
180	111085 403 292 364 74 88 15 1.7660582594015 2.1269890226028 29.503789296539 58.17844135592
179	111488 402 292 364 74 88 15 6.0896581953749 33.675859021715 300.07907071046 7087.2968755197
174	111890 240 292 364 74 88 15 26.6 29.8 408.6 11154.84
173	112130 404 292 364 74 88 15 39.798430116292 321.3789028508 2260.7329385106 458359.33706088
vector 218 RSUExampleScenario.node[43].veinsmobility acceleration ETV
vector 219 RSUExampleScenario.node[43].veinsmobility co2emission ETV
142	112673 431 292 370 74 89 16 98.016670401524 243.1569111641 2470.6427731596 423982.44208075
143	113104 327 292 370 74 89 16 33 43.751025668318 577.20371256022 21083.576598394
149	113431 436 292 370 74 89 16 4.7063409520725e-05 19.232969466091 156.79783883218 2012.3856509374
150	113867 435 292 370 74 89 16 -4.4829933140893 2.231473163742 6.6003780307641 96.888300627308
151	114302 390 292 370 74 89 16 0.973 11.006592286142 78.592847936728 580.05857164885
177	114692 432 292 370 74 89 16 55.698273322502 190.56783299606 1890.5636822806 251833.60498878
178	115124 330 292 370 74 89 16 29.8 70.203922000138 693.98016747011 33031.96292721
182	115454 430 292 370 74 89 16 5.0075343191148 13.334074394229 154.90608739062 1569.7135619435
183	115884 430 292 370 74 89 16 30.248041316012 179.62959172085 1583.2127910841 201728.23345213
184	116314 254 292 370 74 89 16 29.8 33 480 14409.6
185	116568 438 292 370 74 89 16 -4.4288172036902 2.2206114864675 10.290689584378 65.213221543333
186	117006 381 292 370 74 89 16 0.973 8.9498664055647 72.030236157646 439.87122973377
187	117387 402 297 370 75 89 15 50.900164363098 135.70979322567 1355.9815330583 132525.30827054
188	117789 378 297 370 75 89 15 33 73.203182077378 747.59916709563 40299.118347165
189	118167 404 297 370 75 89 15 2.8262097484828 16.400506347744 152.80464333251 1815.7948731363
190	118571 369 301 370 76 89 14 -3.4777777777778 2.2083022088651 5.0485680286981 55.773292679112
191	118940 328 301 370 76 89 14 0.973 8.8475786918082 59.764739421027 383.55760547506
192	119268 377 301 370 76 89 14 1.1164937246107 11.647376126667 99.79736306719 842.13593721169
193	119645 348 307 370 77 89 13 30.77223845518 196.92343081253 1192.769013316 146212.61639448
194	119993 208 307 370 77 89 13 26.6 29.8 365 10281.16
195	120201 354 307 370 77 89 13 -4.4922417294095 2.1072041776427 7.4620668369412 76.230435702808
196	120555 318 307 370 77 89 13 0.973 6.999044701214 52.359999116246 267.04861133828
197	120873 323 313 370 78 89 12 3.7653753825567 25.81154389097 176.88284177164 3181.4600929282
198	121196 293 318 370 79 89 11 30.124873496691 133.56646221247 741.46224304086 62782.515182672
199	121489 176 318 370 79 89 11 29.8 29.8 327.8 9768.44
200	121665 295 318 370 79 89 11 1.8117870221403 2.1556650222978 22.046168508413 44.314924642293
201	121960 296 318 370 79 89 11 4.3546940286794 15.982038407602 110.3767215254 1278.0816126154
202	122256 269 322 370 80 89 10 2.3545583322838 18.768218574744 112.17249652741 1563.0370049426
203	122525 242 328 370 81 89 9 0.5763136808388 2.2523587067309 16.41366024246 31.848707070498
204	122767 240 328 370 81 89 9 3.2626432826963 10.210062434087 63.132190861644 492.86541910933
205	123007 216 334 370 82 89 8 30.349964198992 85.440743647326 409.53177614468 23717.073665075
206	123223 128 334 370 82 89 8 29.8 29.8 238.4 7104.32
207	123351 188 339 370 83 89 7 3.0364857330425 14.536745383758 61.141867880224 637.03484263184
208	123539 162 343 370 84 89 6 1.8460914583388 1.9822714895871 11.500259650715 22.0526355095
209	123701 162 343 370 84 89 6 3.5285861415348 9.0396296680876 37.151398257848 250.67134663068
210	123863 135 349 370 85 89 5 30.785145439803 53.201483060906 200.42579866454 8360.8706244063
211	123998 80 349 370 85 89 5 29.8 29.8 149 4440.2
212	124078 107 355 370 86 89 4 3.5343954183276 9.2613085000355 25.738050642693 183.746255971
213	124185 81 360 370 87 89 3 30.125970365429 35.086457340554 96.814641613541 3137.3335030283
214	124266 48 360 370 87 89 3 29.8 29.8 89.4 2664.12
215	124314 81 360 370 87 89 3 1.8600006049429 2.0066434109095 5.7269130817079 10.946821026313
216	124395 80 360 370 87 89 3 4.0726681295917 5.7816230545562 14.676974482315 73.272065033187
217	124475 53 364 370 88 89 2 2.327012674638 4.4302636853756 6.7572763600136 25.042224309884
218	124528 27 370 370 89 89 1 2.1032510107376 2.1032510107376 2.1032510107376 4.4236648141687
219	124555 27 370 370 89 89 1 3.5773761521822 3.5773761521822 3.5773761521822 12.797620134202

