version 2
run Default-0-20220510-17:00:06-261187
attr configname Default
attr datetime 20220510-17:00:06
attr experiment Default
attr inifile omnetpp.ini
attr iterationvars ""
attr iterationvarsf ""
attr measurement ""
attr network RSUExampleScenario
attr processid 261187
attr repetition 0
attr replication #0
attr resultdir results
attr runnumber 0
attr seedset 0
param *.playgroundSizeX 500m
param *.playgroundSizeY 200m
param *.playgroundSizeZ 50m
param *.annotations.draw true
param *.obstacles.obstacles "xmldoc(\"config.xml\", \"//AnalogueModel[@type='SimpleObstacleShadowing']/obstacles\")"
param *.manager.updateInterval 1s
param *.manager.host "\"localhost\""
param *.manager.port 9999
param *.manager.autoShutdown true
param *.manager.launchConfig "xmldoc(\"highway.launchd.xml\")"
param *.manager.moduleType "\"*=org.car2x.veins.nodes.Car\""
param *.manager.moduleName "\"*=node\""
param *.manager.trafficLightModuleType "\"org.car2x.veins.nodes.TrafficLight\""
param *.manager.trafficLightModuleName "\"rampMeter\""
param *.manager.trafficLightModuleDisplayString default
param *.manager.trafficLightFilter "\"rampMeter\""
param *.rampMeter[*].mobility.x 0
param *.rampMeter[*].mobility.y 0
param *.rampMeter[*].mobility.z 3
param *.rampMeter[*].applType "\"smarthighway.RampMeterControl.RampMeterController\""
param *.rampMeter[*].appl.headerLength "80 bit"
param *.rampMeter[*].appl.sendBeacons false
param *.rampMeter[*].appl.dataOnSch false
param *.rampMeter[*].appl.beaconInterval 1s
param *.rampMeter[*].appl.beaconUserPriority 7
param *.rampMeter[*].appl.dataUserPriority 5
param *.rampMeter[*].logicType "\"org.car2x.veins.modules.world.traci.trafficLight.logics.TraCITrafficLightSimpleLogic\""
param *.rampMeter[*].nic.phy80211p.antennaOffsetZ "0 m"
param *.rsu[0].mobility.x 150
param *.rsu[0].mobility.y 20
param *.rsu[0].mobility.z 3
param *.rsu[*].applType "\"RSUApp\""
param *.rsu[*].appl.headerLength "80 bit"
param *.rsu[*].appl.sendBeacons false
param *.rsu[*].appl.dataOnSch false
param *.rsu[*].appl.beaconInterval 1s
param *.rsu[*].appl.beaconUserPriority 7
param *.rsu[*].appl.dataUserPriority 5
param *.rsu[*].nic.phy80211p.antennaOffsetZ "0 m"
param *.connectionManager.sendDirect true
param *.connectionManager.maxInterfDist 2600m
param *.connectionManager.drawMaxIntfDist false
param *.**.nic.mac1609_4.useServiceChannel false
param *.**.nic.mac1609_4.txPower 20mW
param *.**.nic.mac1609_4.bitrate 6Mbps
param *.**.nic.phy80211p.minPowerLevel -110dBm
param *.**.nic.phy80211p.useNoiseFloor true
param *.**.nic.phy80211p.noiseFloor -98dBm
param *.**.nic.phy80211p.decider "xmldoc(\"config.xml\")"
param *.**.nic.phy80211p.analogueModels "xmldoc(\"config.xml\")"
param *.**.nic.phy80211p.usePropagationDelay true
param *.**.nic.phy80211p.antenna "xmldoc(\"antenna.xml\", \"/root/Antenna[@id='monopole']\")"
param *.*node[*].nic.phy80211p.antennaOffsetY "0 m"
param *.*node[*].nic.phy80211p.antennaOffsetZ "1.895 m"
param *.node[*].applType "\"CarApp\""
param *.bad_node[*].applType "\"BadCarApp\""
param *.*node[*].appl.headerLength "80 bit"
param *.*node[*].appl.sendBeacons false
param *.*node[*].appl.dataOnSch false
param *.*node[*].appl.beaconInterval 1s
param *.*node[*].veinsmobility.x 0
param *.*node[*].veinsmobility.y 0
param *.*node[*].veinsmobility.z 0
param *.*node[*].veinsmobility.setHostSpeed false
param *.*node[*0].veinsmobility.accidentCount 1
param *.*node[*0].veinsmobility.accidentStart 73s
param *.*node[*0].veinsmobility.accidentDuration 50s

scalar RSUExampleScenario.node[0].appl generatedWSMs 0
scalar RSUExampleScenario.node[0].appl receivedWSMs 0
scalar RSUExampleScenario.node[0].appl generatedBSMs 0
scalar RSUExampleScenario.node[0].appl receivedBSMs 0
scalar RSUExampleScenario.node[0].appl generatedWSAs 0
scalar RSUExampleScenario.node[0].appl receivedWSAs 0
scalar RSUExampleScenario.node[0].nic.phy80211p busyTime 0
scalar RSUExampleScenario.node[0].nic.mac1609_4 ReceivedUnicastPackets 0
scalar RSUExampleScenario.node[0].nic.mac1609_4 ReceivedBroadcasts 0
scalar RSUExampleScenario.node[0].nic.mac1609_4 SentPackets 0
scalar RSUExampleScenario.node[0].nic.mac1609_4 SentAcknowledgements 0
scalar RSUExampleScenario.node[0].nic.mac1609_4 RetriesExceeded 0
scalar RSUExampleScenario.node[0].nic.mac1609_4 SNIRLostPackets 0
scalar RSUExampleScenario.node[0].nic.mac1609_4 RXTXLostPackets 0
scalar RSUExampleScenario.node[0].nic.mac1609_4 TotalLostPackets 0
scalar RSUExampleScenario.node[0].nic.mac1609_4 DroppedPacketsInMac 0
scalar RSUExampleScenario.node[0].nic.mac1609_4 TooLittleTime 0
scalar RSUExampleScenario.node[0].nic.mac1609_4 TimesIntoBackoff 0
scalar RSUExampleScenario.node[0].nic.mac1609_4 SlotsBackoff 0
scalar RSUExampleScenario.node[0].nic.mac1609_4 NumInternalContention 0
scalar RSUExampleScenario.node[0].nic.mac1609_4 totalBusyTime 0
scalar RSUExampleScenario.node[0].nic.mac1609_4 retriesExceeded:count 0
attr source org_car2x_veins_modules_mac_sigRetriesExceeded
scalar RSUExampleScenario.node[0].nic.mac1609_4 sentAcks:count 0
attr source org_car2x_veins_modules_mac_sigSentAck
scalar RSUExampleScenario.node[0].nic.mac1609_4 sentPackets:count 0
attr source org_car2x_veins_modules_mac_sigSentPacket
scalar RSUExampleScenario.node[0].nic.mac1609_4 collisions:count 0
attr source org_car2x_veins_modules_mac_sigCollision
scalar RSUExampleScenario.node[0].nic.mac1609_4 channelBusy:timeavg 0
attr source org_car2x_veins_modules_mac_sigChannelBusy
scalar RSUExampleScenario.node[0].veinsmobility startTime 1
scalar RSUExampleScenario.node[0].veinsmobility totalTime 16
scalar RSUExampleScenario.node[0].veinsmobility stopTime 18
scalar RSUExampleScenario.node[0].veinsmobility minSpeed 4.1428915371655
scalar RSUExampleScenario.node[0].veinsmobility maxSpeed 33.274193493729
scalar RSUExampleScenario.node[0].veinsmobility totalDistance 284.44577761878
scalar RSUExampleScenario.node[0].veinsmobility totalCO2Emission 185.28047268652
scalar RSUExampleScenario.node[4].appl generatedWSMs 0
scalar RSUExampleScenario.node[4].appl receivedWSMs 0
scalar RSUExampleScenario.node[4].appl generatedBSMs 0
scalar RSUExampleScenario.node[4].appl receivedBSMs 0
scalar RSUExampleScenario.node[4].appl generatedWSAs 0
scalar RSUExampleScenario.node[4].appl receivedWSAs 0
scalar RSUExampleScenario.node[4].nic.phy80211p busyTime 0
scalar RSUExampleScenario.node[4].nic.mac1609_4 ReceivedUnicastPackets 0
scalar RSUExampleScenario.node[4].nic.mac1609_4 ReceivedBroadcasts 0
scalar RSUExampleScenario.node[4].nic.mac1609_4 SentPackets 0
scalar RSUExampleScenario.node[4].nic.mac1609_4 SentAcknowledgements 0
scalar RSUExampleScenario.node[4].nic.mac1609_4 RetriesExceeded 0
scalar RSUExampleScenario.node[4].nic.mac1609_4 SNIRLostPackets 0
scalar RSUExampleScenario.node[4].nic.mac1609_4 RXTXLostPackets 0
scalar RSUExampleScenario.node[4].nic.mac1609_4 TotalLostPackets 0
scalar RSUExampleScenario.node[4].nic.mac1609_4 DroppedPacketsInMac 0
scalar RSUExampleScenario.node[4].nic.mac1609_4 TooLittleTime 0
scalar RSUExampleScenario.node[4].nic.mac1609_4 TimesIntoBackoff 0
scalar RSUExampleScenario.node[4].nic.mac1609_4 SlotsBackoff 0
scalar RSUExampleScenario.node[4].nic.mac1609_4 NumInternalContention 0
scalar RSUExampleScenario.node[4].nic.mac1609_4 totalBusyTime 0
scalar RSUExampleScenario.node[4].nic.mac1609_4 retriesExceeded:count 0
attr source org_car2x_veins_modules_mac_sigRetriesExceeded
scalar RSUExampleScenario.node[4].nic.mac1609_4 sentAcks:count 0
attr source org_car2x_veins_modules_mac_sigSentAck
scalar RSUExampleScenario.node[4].nic.mac1609_4 sentPackets:count 0
attr source org_car2x_veins_modules_mac_sigSentPacket
scalar RSUExampleScenario.node[4].nic.mac1609_4 collisions:count 0
attr source org_car2x_veins_modules_mac_sigCollision
scalar RSUExampleScenario.node[4].nic.mac1609_4 channelBusy:timeavg 0
attr source org_car2x_veins_modules_mac_sigChannelBusy
scalar RSUExampleScenario.node[4].veinsmobility startTime 6
scalar RSUExampleScenario.node[4].veinsmobility totalTime 16
scalar RSUExampleScenario.node[4].veinsmobility stopTime 23
scalar RSUExampleScenario.node[4].veinsmobility minSpeed 3.6955023822781
scalar RSUExampleScenario.node[4].veinsmobility maxSpeed 33.21918452073
scalar RSUExampleScenario.node[4].veinsmobility totalDistance 282.11571903311
scalar RSUExampleScenario.node[4].veinsmobility totalCO2Emission 185.40442897643
scalar RSUExampleScenario.node[3].appl generatedWSMs 0
scalar RSUExampleScenario.node[3].appl receivedWSMs 0
scalar RSUExampleScenario.node[3].appl generatedBSMs 0
scalar RSUExampleScenario.node[3].appl receivedBSMs 0
scalar RSUExampleScenario.node[3].appl generatedWSAs 0
scalar RSUExampleScenario.node[3].appl receivedWSAs 0
scalar RSUExampleScenario.node[3].nic.phy80211p busyTime 0
scalar RSUExampleScenario.node[3].nic.mac1609_4 ReceivedUnicastPackets 0
scalar RSUExampleScenario.node[3].nic.mac1609_4 ReceivedBroadcasts 0
scalar RSUExampleScenario.node[3].nic.mac1609_4 SentPackets 0
scalar RSUExampleScenario.node[3].nic.mac1609_4 SentAcknowledgements 0
scalar RSUExampleScenario.node[3].nic.mac1609_4 RetriesExceeded 0
scalar RSUExampleScenario.node[3].nic.mac1609_4 SNIRLostPackets 0
scalar RSUExampleScenario.node[3].nic.mac1609_4 RXTXLostPackets 0
scalar RSUExampleScenario.node[3].nic.mac1609_4 TotalLostPackets 0
scalar RSUExampleScenario.node[3].nic.mac1609_4 DroppedPacketsInMac 0
scalar RSUExampleScenario.node[3].nic.mac1609_4 TooLittleTime 0
scalar RSUExampleScenario.node[3].nic.mac1609_4 TimesIntoBackoff 0
scalar RSUExampleScenario.node[3].nic.mac1609_4 SlotsBackoff 0
scalar RSUExampleScenario.node[3].nic.mac1609_4 NumInternalContention 0
scalar RSUExampleScenario.node[3].nic.mac1609_4 totalBusyTime 0
scalar RSUExampleScenario.node[3].nic.mac1609_4 retriesExceeded:count 0
attr source org_car2x_veins_modules_mac_sigRetriesExceeded
scalar RSUExampleScenario.node[3].nic.mac1609_4 sentAcks:count 0
attr source org_car2x_veins_modules_mac_sigSentAck
scalar RSUExampleScenario.node[3].nic.mac1609_4 sentPackets:count 0
attr source org_car2x_veins_modules_mac_sigSentPacket
scalar RSUExampleScenario.node[3].nic.mac1609_4 collisions:count 0
attr source org_car2x_veins_modules_mac_sigCollision
scalar RSUExampleScenario.node[3].nic.mac1609_4 channelBusy:timeavg 0
attr source org_car2x_veins_modules_mac_sigChannelBusy
scalar RSUExampleScenario.node[3].veinsmobility startTime 3
scalar RSUExampleScenario.node[3].veinsmobility totalTime 21
scalar RSUExampleScenario.node[3].veinsmobility stopTime 25
scalar RSUExampleScenario.node[3].veinsmobility minSpeed 2.7380168723571
scalar RSUExampleScenario.node[3].veinsmobility maxSpeed 23.191140494621
scalar RSUExampleScenario.node[3].veinsmobility totalDistance 285.22427967129
scalar RSUExampleScenario.node[3].veinsmobility totalCO2Emission 145.29681775717
scalar RSUExampleScenario.node[5].appl generatedWSMs 0
scalar RSUExampleScenario.node[5].appl receivedWSMs 0
scalar RSUExampleScenario.node[5].appl generatedBSMs 0
scalar RSUExampleScenario.node[5].appl receivedBSMs 0
scalar RSUExampleScenario.node[5].appl generatedWSAs 0
scalar RSUExampleScenario.node[5].appl receivedWSAs 0
scalar RSUExampleScenario.node[5].nic.phy80211p busyTime 0
scalar RSUExampleScenario.node[5].nic.mac1609_4 ReceivedUnicastPackets 0
scalar RSUExampleScenario.node[5].nic.mac1609_4 ReceivedBroadcasts 0
scalar RSUExampleScenario.node[5].nic.mac1609_4 SentPackets 0
scalar RSUExampleScenario.node[5].nic.mac1609_4 SentAcknowledgements 0
scalar RSUExampleScenario.node[5].nic.mac1609_4 RetriesExceeded 0
scalar RSUExampleScenario.node[5].nic.mac1609_4 SNIRLostPackets 0
scalar RSUExampleScenario.node[5].nic.mac1609_4 RXTXLostPackets 0
scalar RSUExampleScenario.node[5].nic.mac1609_4 TotalLostPackets 0
scalar RSUExampleScenario.node[5].nic.mac1609_4 DroppedPacketsInMac 0
scalar RSUExampleScenario.node[5].nic.mac1609_4 TooLittleTime 0
scalar RSUExampleScenario.node[5].nic.mac1609_4 TimesIntoBackoff 0
scalar RSUExampleScenario.node[5].nic.mac1609_4 SlotsBackoff 0
scalar RSUExampleScenario.node[5].nic.mac1609_4 NumInternalContention 0
scalar RSUExampleScenario.node[5].nic.mac1609_4 totalBusyTime 0
scalar RSUExampleScenario.node[5].nic.mac1609_4 retriesExceeded:count 0
attr source org_car2x_veins_modules_mac_sigRetriesExceeded
scalar RSUExampleScenario.node[5].nic.mac1609_4 sentAcks:count 0
attr source org_car2x_veins_modules_mac_sigSentAck
scalar RSUExampleScenario.node[5].nic.mac1609_4 sentPackets:count 0
attr source org_car2x_veins_modules_mac_sigSentPacket
scalar RSUExampleScenario.node[5].nic.mac1609_4 collisions:count 0
attr source org_car2x_veins_modules_mac_sigCollision
scalar RSUExampleScenario.node[5].nic.mac1609_4 channelBusy:timeavg 0
attr source org_car2x_veins_modules_mac_sigChannelBusy
scalar RSUExampleScenario.node[5].veinsmobility startTime 8
scalar RSUExampleScenario.node[5].veinsmobility totalTime 16
scalar RSUExampleScenario.node[5].veinsmobility stopTime 25
scalar RSUExampleScenario.node[5].veinsmobility minSpeed 2.5173213501673
scalar RSUExampleScenario.node[5].veinsmobility maxSpeed 32.033108781272
scalar RSUExampleScenario.node[5].veinsmobility totalDistance 261.59238458572
scalar RSUExampleScenario.node[5].veinsmobility totalCO2Emission 173.51338621686
scalar RSUExampleScenario.node[6].appl generatedWSMs 0
scalar RSUExampleScenario.node[6].appl receivedWSMs 0
scalar RSUExampleScenario.node[6].appl generatedBSMs 0
scalar RSUExampleScenario.node[6].appl receivedBSMs 0
scalar RSUExampleScenario.node[6].appl generatedWSAs 0
scalar RSUExampleScenario.node[6].appl receivedWSAs 0
scalar RSUExampleScenario.node[6].nic.phy80211p busyTime 0
scalar RSUExampleScenario.node[6].nic.mac1609_4 ReceivedUnicastPackets 0
scalar RSUExampleScenario.node[6].nic.mac1609_4 ReceivedBroadcasts 0
scalar RSUExampleScenario.node[6].nic.mac1609_4 SentPackets 0
scalar RSUExampleScenario.node[6].nic.mac1609_4 SentAcknowledgements 0
scalar RSUExampleScenario.node[6].nic.mac1609_4 RetriesExceeded 0
scalar RSUExampleScenario.node[6].nic.mac1609_4 SNIRLostPackets 0
scalar RSUExampleScenario.node[6].nic.mac1609_4 RXTXLostPackets 0
scalar RSUExampleScenario.node[6].nic.mac1609_4 TotalLostPackets 0
scalar RSUExampleScenario.node[6].nic.mac1609_4 DroppedPacketsInMac 0
scalar RSUExampleScenario.node[6].nic.mac1609_4 TooLittleTime 0
scalar RSUExampleScenario.node[6].nic.mac1609_4 TimesIntoBackoff 0
scalar RSUExampleScenario.node[6].nic.mac1609_4 SlotsBackoff 0
scalar RSUExampleScenario.node[6].nic.mac1609_4 NumInternalContention 0
scalar RSUExampleScenario.node[6].nic.mac1609_4 totalBusyTime 0
scalar RSUExampleScenario.node[6].nic.mac1609_4 retriesExceeded:count 0
attr source org_car2x_veins_modules_mac_sigRetriesExceeded
scalar RSUExampleScenario.node[6].nic.mac1609_4 sentAcks:count 0
attr source org_car2x_veins_modules_mac_sigSentAck
scalar RSUExampleScenario.node[6].nic.mac1609_4 sentPackets:count 0
attr source org_car2x_veins_modules_mac_sigSentPacket
scalar RSUExampleScenario.node[6].nic.mac1609_4 collisions:count 0
attr source org_car2x_veins_modules_mac_sigCollision
scalar RSUExampleScenario.node[6].nic.mac1609_4 channelBusy:timeavg 0
attr source org_car2x_veins_modules_mac_sigChannelBusy
scalar RSUExampleScenario.node[6].veinsmobility startTime 11
scalar RSUExampleScenario.node[6].veinsmobility totalTime 16
scalar RSUExampleScenario.node[6].veinsmobility stopTime 28
scalar RSUExampleScenario.node[6].veinsmobility minSpeed 3.2912820470421
scalar RSUExampleScenario.node[6].veinsmobility maxSpeed 33.149721980493
scalar RSUExampleScenario.node[6].veinsmobility totalDistance 278.28331208889
scalar RSUExampleScenario.node[6].veinsmobility totalCO2Emission 184.90437210959
scalar RSUExampleScenario.node[1].appl generatedWSMs 0
scalar RSUExampleScenario.node[1].appl receivedWSMs 0
scalar RSUExampleScenario.node[1].appl generatedBSMs 0
scalar RSUExampleScenario.node[1].appl receivedBSMs 0
scalar RSUExampleScenario.node[1].appl generatedWSAs 0
scalar RSUExampleScenario.node[1].appl receivedWSAs 0
scalar RSUExampleScenario.node[1].nic.phy80211p busyTime 0
scalar RSUExampleScenario.node[1].nic.mac1609_4 ReceivedUnicastPackets 0
scalar RSUExampleScenario.node[1].nic.mac1609_4 ReceivedBroadcasts 0
scalar RSUExampleScenario.node[1].nic.mac1609_4 SentPackets 0
scalar RSUExampleScenario.node[1].nic.mac1609_4 SentAcknowledgements 0
scalar RSUExampleScenario.node[1].nic.mac1609_4 RetriesExceeded 0
scalar RSUExampleScenario.node[1].nic.mac1609_4 SNIRLostPackets 0
scalar RSUExampleScenario.node[1].nic.mac1609_4 RXTXLostPackets 0
scalar RSUExampleScenario.node[1].nic.mac1609_4 TotalLostPackets 0
scalar RSUExampleScenario.node[1].nic.mac1609_4 DroppedPacketsInMac 0
scalar RSUExampleScenario.node[1].nic.mac1609_4 TooLittleTime 0
scalar RSUExampleScenario.node[1].nic.mac1609_4 TimesIntoBackoff 0
scalar RSUExampleScenario.node[1].nic.mac1609_4 SlotsBackoff 0
scalar RSUExampleScenario.node[1].nic.mac1609_4 NumInternalContention 0
scalar RSUExampleScenario.node[1].nic.mac1609_4 totalBusyTime 0
scalar RSUExampleScenario.node[1].nic.mac1609_4 retriesExceeded:count 0
attr source org_car2x_veins_modules_mac_sigRetriesExceeded
scalar RSUExampleScenario.node[1].nic.mac1609_4 sentAcks:count 0
attr source org_car2x_veins_modules_mac_sigSentAck
scalar RSUExampleScenario.node[1].nic.mac1609_4 sentPackets:count 0
attr source org_car2x_veins_modules_mac_sigSentPacket
scalar RSUExampleScenario.node[1].nic.mac1609_4 collisions:count 0
attr source org_car2x_veins_modules_mac_sigCollision
scalar RSUExampleScenario.node[1].nic.mac1609_4 channelBusy:timeavg 0
attr source org_car2x_veins_modules_mac_sigChannelBusy
scalar RSUExampleScenario.node[1].veinsmobility startTime 1
scalar RSUExampleScenario.node[1].veinsmobility totalTime 31
scalar RSUExampleScenario.node[1].veinsmobility stopTime 33
scalar RSUExampleScenario.node[1].veinsmobility minSpeed 0
scalar RSUExampleScenario.node[1].veinsmobility maxSpeed 19.875327841158
scalar RSUExampleScenario.node[1].veinsmobility totalDistance 269.56437627107
scalar RSUExampleScenario.node[1].veinsmobility totalCO2Emission 153.3785415943
scalar RSUExampleScenario.node[8].appl generatedWSMs 0
scalar RSUExampleScenario.node[8].appl receivedWSMs 0
scalar RSUExampleScenario.node[8].appl generatedBSMs 0
scalar RSUExampleScenario.node[8].appl receivedBSMs 0
scalar RSUExampleScenario.node[8].appl generatedWSAs 0
scalar RSUExampleScenario.node[8].appl receivedWSAs 0
scalar RSUExampleScenario.node[8].nic.phy80211p busyTime 0
scalar RSUExampleScenario.node[8].nic.mac1609_4 ReceivedUnicastPackets 0
scalar RSUExampleScenario.node[8].nic.mac1609_4 ReceivedBroadcasts 0
scalar RSUExampleScenario.node[8].nic.mac1609_4 SentPackets 0
scalar RSUExampleScenario.node[8].nic.mac1609_4 SentAcknowledgements 0
scalar RSUExampleScenario.node[8].nic.mac1609_4 RetriesExceeded 0
scalar RSUExampleScenario.node[8].nic.mac1609_4 SNIRLostPackets 0
scalar RSUExampleScenario.node[8].nic.mac1609_4 RXTXLostPackets 0
scalar RSUExampleScenario.node[8].nic.mac1609_4 TotalLostPackets 0
scalar RSUExampleScenario.node[8].nic.mac1609_4 DroppedPacketsInMac 0
scalar RSUExampleScenario.node[8].nic.mac1609_4 TooLittleTime 0
scalar RSUExampleScenario.node[8].nic.mac1609_4 TimesIntoBackoff 0
scalar RSUExampleScenario.node[8].nic.mac1609_4 SlotsBackoff 0
scalar RSUExampleScenario.node[8].nic.mac1609_4 NumInternalContention 0
scalar RSUExampleScenario.node[8].nic.mac1609_4 totalBusyTime 0
scalar RSUExampleScenario.node[8].nic.mac1609_4 retriesExceeded:count 0
attr source org_car2x_veins_modules_mac_sigRetriesExceeded
scalar RSUExampleScenario.node[8].nic.mac1609_4 sentAcks:count 0
attr source org_car2x_veins_modules_mac_sigSentAck
scalar RSUExampleScenario.node[8].nic.mac1609_4 sentPackets:count 0
attr source org_car2x_veins_modules_mac_sigSentPacket
scalar RSUExampleScenario.node[8].nic.mac1609_4 collisions:count 0
attr source org_car2x_veins_modules_mac_sigCollision
scalar RSUExampleScenario.node[8].nic.mac1609_4 channelBusy:timeavg 0
attr source org_car2x_veins_modules_mac_sigChannelBusy
scalar RSUExampleScenario.node[8].veinsmobility startTime 16
scalar RSUExampleScenario.node[8].veinsmobility totalTime 16
scalar RSUExampleScenario.node[8].veinsmobility stopTime 33
scalar RSUExampleScenario.node[8].veinsmobility minSpeed 2.7654112135598
scalar RSUExampleScenario.node[8].veinsmobility maxSpeed 31.955697103781
scalar RSUExampleScenario.node[8].veinsmobility totalDistance 266.22971572473
scalar RSUExampleScenario.node[8].veinsmobility totalCO2Emission 173.22500821872
scalar RSUExampleScenario.node[10].appl generatedWSMs 0
scalar RSUExampleScenario.node[10].appl receivedWSMs 0
scalar RSUExampleScenario.node[10].appl generatedBSMs 0
scalar RSUExampleScenario.node[10].appl receivedBSMs 0
scalar RSUExampleScenario.node[10].appl generatedWSAs 0
scalar RSUExampleScenario.node[10].appl receivedWSAs 0
scalar RSUExampleScenario.node[10].nic.phy80211p busyTime 0
scalar RSUExampleScenario.node[10].nic.mac1609_4 ReceivedUnicastPackets 0
scalar RSUExampleScenario.node[10].nic.mac1609_4 ReceivedBroadcasts 0
scalar RSUExampleScenario.node[10].nic.mac1609_4 SentPackets 0
scalar RSUExampleScenario.node[10].nic.mac1609_4 SentAcknowledgements 0
scalar RSUExampleScenario.node[10].nic.mac1609_4 RetriesExceeded 0
scalar RSUExampleScenario.node[10].nic.mac1609_4 SNIRLostPackets 0
scalar RSUExampleScenario.node[10].nic.mac1609_4 RXTXLostPackets 0
scalar RSUExampleScenario.node[10].nic.mac1609_4 TotalLostPackets 0
scalar RSUExampleScenario.node[10].nic.mac1609_4 DroppedPacketsInMac 0
scalar RSUExampleScenario.node[10].nic.mac1609_4 TooLittleTime 0
scalar RSUExampleScenario.node[10].nic.mac1609_4 TimesIntoBackoff 0
scalar RSUExampleScenario.node[10].nic.mac1609_4 SlotsBackoff 0
scalar RSUExampleScenario.node[10].nic.mac1609_4 NumInternalContention 0
scalar RSUExampleScenario.node[10].nic.mac1609_4 totalBusyTime 0
scalar RSUExampleScenario.node[10].nic.mac1609_4 retriesExceeded:count 0
attr source org_car2x_veins_modules_mac_sigRetriesExceeded
scalar RSUExampleScenario.node[10].nic.mac1609_4 sentAcks:count 0
attr source org_car2x_veins_modules_mac_sigSentAck
scalar RSUExampleScenario.node[10].nic.mac1609_4 sentPackets:count 0
attr source org_car2x_veins_modules_mac_sigSentPacket
scalar RSUExampleScenario.node[10].nic.mac1609_4 collisions:count 0
attr source org_car2x_veins_modules_mac_sigCollision
scalar RSUExampleScenario.node[10].nic.mac1609_4 channelBusy:timeavg 0
attr source org_car2x_veins_modules_mac_sigChannelBusy
scalar RSUExampleScenario.node[10].veinsmobility startTime 19
scalar RSUExampleScenario.node[10].veinsmobility totalTime 16
scalar RSUExampleScenario.node[10].veinsmobility stopTime 36
scalar RSUExampleScenario.node[10].veinsmobility minSpeed 3.3885757293898
scalar RSUExampleScenario.node[10].veinsmobility maxSpeed 32.851733131942
scalar RSUExampleScenario.node[10].veinsmobility totalDistance 274.9610443203
scalar RSUExampleScenario.node[10].veinsmobility totalCO2Emission 181.31415965749
scalar RSUExampleScenario.node[7].appl generatedWSMs 0
scalar RSUExampleScenario.node[7].appl receivedWSMs 0
scalar RSUExampleScenario.node[7].appl generatedBSMs 0
scalar RSUExampleScenario.node[7].appl receivedBSMs 0
scalar RSUExampleScenario.node[7].appl generatedWSAs 0
scalar RSUExampleScenario.node[7].appl receivedWSAs 0
scalar RSUExampleScenario.node[7].nic.phy80211p busyTime 0
scalar RSUExampleScenario.node[7].nic.mac1609_4 ReceivedUnicastPackets 0
scalar RSUExampleScenario.node[7].nic.mac1609_4 ReceivedBroadcasts 0
scalar RSUExampleScenario.node[7].nic.mac1609_4 SentPackets 0
scalar RSUExampleScenario.node[7].nic.mac1609_4 SentAcknowledgements 0
scalar RSUExampleScenario.node[7].nic.mac1609_4 RetriesExceeded 0
scalar RSUExampleScenario.node[7].nic.mac1609_4 SNIRLostPackets 0
scalar RSUExampleScenario.node[7].nic.mac1609_4 RXTXLostPackets 0
scalar RSUExampleScenario.node[7].nic.mac1609_4 TotalLostPackets 0
scalar RSUExampleScenario.node[7].nic.mac1609_4 DroppedPacketsInMac 0
scalar RSUExampleScenario.node[7].nic.mac1609_4 TooLittleTime 0
scalar RSUExampleScenario.node[7].nic.mac1609_4 TimesIntoBackoff 0
scalar RSUExampleScenario.node[7].nic.mac1609_4 SlotsBackoff 0
scalar RSUExampleScenario.node[7].nic.mac1609_4 NumInternalContention 0
scalar RSUExampleScenario.node[7].nic.mac1609_4 totalBusyTime 0
scalar RSUExampleScenario.node[7].nic.mac1609_4 retriesExceeded:count 0
attr source org_car2x_veins_modules_mac_sigRetriesExceeded
scalar RSUExampleScenario.node[7].nic.mac1609_4 sentAcks:count 0
attr source org_car2x_veins_modules_mac_sigSentAck
scalar RSUExampleScenario.node[7].nic.mac1609_4 sentPackets:count 0
attr source org_car2x_veins_modules_mac_sigSentPacket
scalar RSUExampleScenario.node[7].nic.mac1609_4 collisions:count 0
attr source org_car2x_veins_modules_mac_sigCollision
scalar RSUExampleScenario.node[7].nic.mac1609_4 channelBusy:timeavg 0
attr source org_car2x_veins_modules_mac_sigChannelBusy
scalar RSUExampleScenario.node[7].veinsmobility startTime 14
scalar RSUExampleScenario.node[7].veinsmobility totalTime 22
scalar RSUExampleScenario.node[7].veinsmobility stopTime 37
scalar RSUExampleScenario.node[7].veinsmobility minSpeed 3.9143178915586
scalar RSUExampleScenario.node[7].veinsmobility maxSpeed 21.90702784926
scalar RSUExampleScenario.node[7].veinsmobility totalDistance 279.27895851807
scalar RSUExampleScenario.node[7].veinsmobility totalCO2Emission 134.84747933466
scalar RSUExampleScenario.node[11].appl generatedWSMs 0
scalar RSUExampleScenario.node[11].appl receivedWSMs 0
scalar RSUExampleScenario.node[11].appl generatedBSMs 0
scalar RSUExampleScenario.node[11].appl receivedBSMs 0
scalar RSUExampleScenario.node[11].appl generatedWSAs 0
scalar RSUExampleScenario.node[11].appl receivedWSAs 0
scalar RSUExampleScenario.node[11].nic.phy80211p busyTime 0
scalar RSUExampleScenario.node[11].nic.mac1609_4 ReceivedUnicastPackets 0
scalar RSUExampleScenario.node[11].nic.mac1609_4 ReceivedBroadcasts 0
scalar RSUExampleScenario.node[11].nic.mac1609_4 SentPackets 0
scalar RSUExampleScenario.node[11].nic.mac1609_4 SentAcknowledgements 0
scalar RSUExampleScenario.node[11].nic.mac1609_4 RetriesExceeded 0
scalar RSUExampleScenario.node[11].nic.mac1609_4 SNIRLostPackets 0
scalar RSUExampleScenario.node[11].nic.mac1609_4 RXTXLostPackets 0
scalar RSUExampleScenario.node[11].nic.mac1609_4 TotalLostPackets 0
scalar RSUExampleScenario.node[11].nic.mac1609_4 DroppedPacketsInMac 0
scalar RSUExampleScenario.node[11].nic.mac1609_4 TooLittleTime 0
scalar RSUExampleScenario.node[11].nic.mac1609_4 TimesIntoBackoff 0
scalar RSUExampleScenario.node[11].nic.mac1609_4 SlotsBackoff 0
scalar RSUExampleScenario.node[11].nic.mac1609_4 NumInternalContention 0
scalar RSUExampleScenario.node[11].nic.mac1609_4 totalBusyTime 0
scalar RSUExampleScenario.node[11].nic.mac1609_4 retriesExceeded:count 0
attr source org_car2x_veins_modules_mac_sigRetriesExceeded
scalar RSUExampleScenario.node[11].nic.mac1609_4 sentAcks:count 0
attr source org_car2x_veins_modules_mac_sigSentAck
scalar RSUExampleScenario.node[11].nic.mac1609_4 sentPackets:count 0
attr source org_car2x_veins_modules_mac_sigSentPacket
scalar RSUExampleScenario.node[11].nic.mac1609_4 collisions:count 0
attr source org_car2x_veins_modules_mac_sigCollision
scalar RSUExampleScenario.node[11].nic.mac1609_4 channelBusy:timeavg 0
attr source org_car2x_veins_modules_mac_sigChannelBusy
scalar RSUExampleScenario.node[11].veinsmobility startTime 21
scalar RSUExampleScenario.node[11].veinsmobility totalTime 17
scalar RSUExampleScenario.node[11].veinsmobility stopTime 39
scalar RSUExampleScenario.node[11].veinsmobility minSpeed 2.2301270362817
scalar RSUExampleScenario.node[11].veinsmobility maxSpeed 33.932838631703
scalar RSUExampleScenario.node[11].veinsmobility totalDistance 293.88406855602
scalar RSUExampleScenario.node[11].veinsmobility totalCO2Emission 195.77909396956
scalar RSUExampleScenario.node[13].appl generatedWSMs 0
scalar RSUExampleScenario.node[13].appl receivedWSMs 0
scalar RSUExampleScenario.node[13].appl generatedBSMs 0
scalar RSUExampleScenario.node[13].appl receivedBSMs 0
scalar RSUExampleScenario.node[13].appl generatedWSAs 0
scalar RSUExampleScenario.node[13].appl receivedWSAs 0
scalar RSUExampleScenario.node[13].nic.phy80211p busyTime 0
scalar RSUExampleScenario.node[13].nic.mac1609_4 ReceivedUnicastPackets 0
scalar RSUExampleScenario.node[13].nic.mac1609_4 ReceivedBroadcasts 0
scalar RSUExampleScenario.node[13].nic.mac1609_4 SentPackets 0
scalar RSUExampleScenario.node[13].nic.mac1609_4 SentAcknowledgements 0
scalar RSUExampleScenario.node[13].nic.mac1609_4 RetriesExceeded 0
scalar RSUExampleScenario.node[13].nic.mac1609_4 SNIRLostPackets 0
scalar RSUExampleScenario.node[13].nic.mac1609_4 RXTXLostPackets 0
scalar RSUExampleScenario.node[13].nic.mac1609_4 TotalLostPackets 0
scalar RSUExampleScenario.node[13].nic.mac1609_4 DroppedPacketsInMac 0
scalar RSUExampleScenario.node[13].nic.mac1609_4 TooLittleTime 0
scalar RSUExampleScenario.node[13].nic.mac1609_4 TimesIntoBackoff 0
scalar RSUExampleScenario.node[13].nic.mac1609_4 SlotsBackoff 0
scalar RSUExampleScenario.node[13].nic.mac1609_4 NumInternalContention 0
scalar RSUExampleScenario.node[13].nic.mac1609_4 totalBusyTime 0
scalar RSUExampleScenario.node[13].nic.mac1609_4 retriesExceeded:count 0
attr source org_car2x_veins_modules_mac_sigRetriesExceeded
scalar RSUExampleScenario.node[13].nic.mac1609_4 sentAcks:count 0
attr source org_car2x_veins_modules_mac_sigSentAck
scalar RSUExampleScenario.node[13].nic.mac1609_4 sentPackets:count 0
attr source org_car2x_veins_modules_mac_sigSentPacket
scalar RSUExampleScenario.node[13].nic.mac1609_4 collisions:count 0
attr source org_car2x_veins_modules_mac_sigCollision
scalar RSUExampleScenario.node[13].nic.mac1609_4 channelBusy:timeavg 0
attr source org_car2x_veins_modules_mac_sigChannelBusy
scalar RSUExampleScenario.node[13].veinsmobility startTime 24
scalar RSUExampleScenario.node[13].veinsmobility totalTime 16
scalar RSUExampleScenario.node[13].veinsmobility stopTime 41
scalar RSUExampleScenario.node[13].veinsmobility minSpeed 2.9276496935429
scalar RSUExampleScenario.node[13].veinsmobility maxSpeed 31.891432048162
scalar RSUExampleScenario.node[13].veinsmobility totalDistance 264.01224976369
scalar RSUExampleScenario.node[13].veinsmobility totalCO2Emission 172.1471103167
scalar RSUExampleScenario.node[2].appl generatedWSMs 0
scalar RSUExampleScenario.node[2].appl receivedWSMs 0
scalar RSUExampleScenario.node[2].appl generatedBSMs 0
scalar RSUExampleScenario.node[2].appl receivedBSMs 0
scalar RSUExampleScenario.node[2].appl generatedWSAs 0
scalar RSUExampleScenario.node[2].appl receivedWSAs 0
scalar RSUExampleScenario.node[2].nic.phy80211p busyTime 0
scalar RSUExampleScenario.node[2].nic.mac1609_4 ReceivedUnicastPackets 0
scalar RSUExampleScenario.node[2].nic.mac1609_4 ReceivedBroadcasts 0
scalar RSUExampleScenario.node[2].nic.mac1609_4 SentPackets 0
scalar RSUExampleScenario.node[2].nic.mac1609_4 SentAcknowledgements 0
scalar RSUExampleScenario.node[2].nic.mac1609_4 RetriesExceeded 0
scalar RSUExampleScenario.node[2].nic.mac1609_4 SNIRLostPackets 0
scalar RSUExampleScenario.node[2].nic.mac1609_4 RXTXLostPackets 0
scalar RSUExampleScenario.node[2].nic.mac1609_4 TotalLostPackets 0
scalar RSUExampleScenario.node[2].nic.mac1609_4 DroppedPacketsInMac 0
scalar RSUExampleScenario.node[2].nic.mac1609_4 TooLittleTime 0
scalar RSUExampleScenario.node[2].nic.mac1609_4 TimesIntoBackoff 0
scalar RSUExampleScenario.node[2].nic.mac1609_4 SlotsBackoff 0
scalar RSUExampleScenario.node[2].nic.mac1609_4 NumInternalContention 0
scalar RSUExampleScenario.node[2].nic.mac1609_4 totalBusyTime 0
scalar RSUExampleScenario.node[2].nic.mac1609_4 retriesExceeded:count 0
attr source org_car2x_veins_modules_mac_sigRetriesExceeded
scalar RSUExampleScenario.node[2].nic.mac1609_4 sentAcks:count 0
attr source org_car2x_veins_modules_mac_sigSentAck
scalar RSUExampleScenario.node[2].nic.mac1609_4 sentPackets:count 0
attr source org_car2x_veins_modules_mac_sigSentPacket
scalar RSUExampleScenario.node[2].nic.mac1609_4 collisions:count 0
attr source org_car2x_veins_modules_mac_sigCollision
scalar RSUExampleScenario.node[2].nic.mac1609_4 channelBusy:timeavg 0
attr source org_car2x_veins_modules_mac_sigChannelBusy
scalar RSUExampleScenario.node[2].veinsmobility startTime 3
scalar RSUExampleScenario.node[2].veinsmobility totalTime 41
scalar RSUExampleScenario.node[2].veinsmobility stopTime 45
scalar RSUExampleScenario.node[2].veinsmobility minSpeed 0
scalar RSUExampleScenario.node[2].veinsmobility maxSpeed 29.761749183395
scalar RSUExampleScenario.node[2].veinsmobility totalDistance 285.32956065169
scalar RSUExampleScenario.node[2].veinsmobility totalCO2Emission 195.7460294405
scalar RSUExampleScenario.node[15].appl generatedWSMs 0
scalar RSUExampleScenario.node[15].appl receivedWSMs 0
scalar RSUExampleScenario.node[15].appl generatedBSMs 0
scalar RSUExampleScenario.node[15].appl receivedBSMs 0
scalar RSUExampleScenario.node[15].appl generatedWSAs 0
scalar RSUExampleScenario.node[15].appl receivedWSAs 0
scalar RSUExampleScenario.node[15].nic.phy80211p busyTime 0
scalar RSUExampleScenario.node[15].nic.mac1609_4 ReceivedUnicastPackets 0
scalar RSUExampleScenario.node[15].nic.mac1609_4 ReceivedBroadcasts 0
scalar RSUExampleScenario.node[15].nic.mac1609_4 SentPackets 0
scalar RSUExampleScenario.node[15].nic.mac1609_4 SentAcknowledgements 0
scalar RSUExampleScenario.node[15].nic.mac1609_4 RetriesExceeded 0
scalar RSUExampleScenario.node[15].nic.mac1609_4 SNIRLostPackets 0
scalar RSUExampleScenario.node[15].nic.mac1609_4 RXTXLostPackets 0
scalar RSUExampleScenario.node[15].nic.mac1609_4 TotalLostPackets 0
scalar RSUExampleScenario.node[15].nic.mac1609_4 DroppedPacketsInMac 0
scalar RSUExampleScenario.node[15].nic.mac1609_4 TooLittleTime 0
scalar RSUExampleScenario.node[15].nic.mac1609_4 TimesIntoBackoff 0
scalar RSUExampleScenario.node[15].nic.mac1609_4 SlotsBackoff 0
scalar RSUExampleScenario.node[15].nic.mac1609_4 NumInternalContention 0
scalar RSUExampleScenario.node[15].nic.mac1609_4 totalBusyTime 0
scalar RSUExampleScenario.node[15].nic.mac1609_4 retriesExceeded:count 0
attr source org_car2x_veins_modules_mac_sigRetriesExceeded
scalar RSUExampleScenario.node[15].nic.mac1609_4 sentAcks:count 0
attr source org_car2x_veins_modules_mac_sigSentAck
scalar RSUExampleScenario.node[15].nic.mac1609_4 sentPackets:count 0
attr source org_car2x_veins_modules_mac_sigSentPacket
scalar RSUExampleScenario.node[15].nic.mac1609_4 collisions:count 0
attr source org_car2x_veins_modules_mac_sigCollision
scalar RSUExampleScenario.node[15].nic.mac1609_4 channelBusy:timeavg 0
attr source org_car2x_veins_modules_mac_sigChannelBusy
scalar RSUExampleScenario.node[15].veinsmobility startTime 29
scalar RSUExampleScenario.node[15].veinsmobility totalTime 17
scalar RSUExampleScenario.node[15].veinsmobility stopTime 47
scalar RSUExampleScenario.node[15].veinsmobility minSpeed 2.5648352683114
scalar RSUExampleScenario.node[15].veinsmobility maxSpeed 33.518153201741
scalar RSUExampleScenario.node[15].veinsmobility totalDistance 294.01575529457
scalar RSUExampleScenario.node[15].veinsmobility totalCO2Emission 191.3473460313
scalar RSUExampleScenario.node[16].appl generatedWSMs 0
scalar RSUExampleScenario.node[16].appl receivedWSMs 0
scalar RSUExampleScenario.node[16].appl generatedBSMs 0
scalar RSUExampleScenario.node[16].appl receivedBSMs 0
scalar RSUExampleScenario.node[16].appl generatedWSAs 0
scalar RSUExampleScenario.node[16].appl receivedWSAs 0
scalar RSUExampleScenario.node[16].nic.phy80211p busyTime 0
scalar RSUExampleScenario.node[16].nic.mac1609_4 ReceivedUnicastPackets 0
scalar RSUExampleScenario.node[16].nic.mac1609_4 ReceivedBroadcasts 0
scalar RSUExampleScenario.node[16].nic.mac1609_4 SentPackets 0
scalar RSUExampleScenario.node[16].nic.mac1609_4 SentAcknowledgements 0
scalar RSUExampleScenario.node[16].nic.mac1609_4 RetriesExceeded 0
scalar RSUExampleScenario.node[16].nic.mac1609_4 SNIRLostPackets 0
scalar RSUExampleScenario.node[16].nic.mac1609_4 RXTXLostPackets 0
scalar RSUExampleScenario.node[16].nic.mac1609_4 TotalLostPackets 0
scalar RSUExampleScenario.node[16].nic.mac1609_4 DroppedPacketsInMac 0
scalar RSUExampleScenario.node[16].nic.mac1609_4 TooLittleTime 0
scalar RSUExampleScenario.node[16].nic.mac1609_4 TimesIntoBackoff 0
scalar RSUExampleScenario.node[16].nic.mac1609_4 SlotsBackoff 0
scalar RSUExampleScenario.node[16].nic.mac1609_4 NumInternalContention 0
scalar RSUExampleScenario.node[16].nic.mac1609_4 totalBusyTime 0
scalar RSUExampleScenario.node[16].nic.mac1609_4 retriesExceeded:count 0
attr source org_car2x_veins_modules_mac_sigRetriesExceeded
scalar RSUExampleScenario.node[16].nic.mac1609_4 sentAcks:count 0
attr source org_car2x_veins_modules_mac_sigSentAck
scalar RSUExampleScenario.node[16].nic.mac1609_4 sentPackets:count 0
attr source org_car2x_veins_modules_mac_sigSentPacket
scalar RSUExampleScenario.node[16].nic.mac1609_4 collisions:count 0
attr source org_car2x_veins_modules_mac_sigCollision
scalar RSUExampleScenario.node[16].nic.mac1609_4 channelBusy:timeavg 0
attr source org_car2x_veins_modules_mac_sigChannelBusy
scalar RSUExampleScenario.node[16].veinsmobility startTime 32
scalar RSUExampleScenario.node[16].veinsmobility totalTime 16
scalar RSUExampleScenario.node[16].veinsmobility stopTime 49
scalar RSUExampleScenario.node[16].veinsmobility minSpeed 3.1894681280932
scalar RSUExampleScenario.node[16].veinsmobility maxSpeed 32.046246524014
scalar RSUExampleScenario.node[16].veinsmobility totalDistance 268.59658898436
scalar RSUExampleScenario.node[16].veinsmobility totalCO2Emission 173.76044746868
scalar RSUExampleScenario.node[14].appl generatedWSMs 0
scalar RSUExampleScenario.node[14].appl receivedWSMs 0
scalar RSUExampleScenario.node[14].appl generatedBSMs 0
scalar RSUExampleScenario.node[14].appl receivedBSMs 0
scalar RSUExampleScenario.node[14].appl generatedWSAs 0
scalar RSUExampleScenario.node[14].appl receivedWSAs 0
scalar RSUExampleScenario.node[14].nic.phy80211p busyTime 0
scalar RSUExampleScenario.node[14].nic.mac1609_4 ReceivedUnicastPackets 0
scalar RSUExampleScenario.node[14].nic.mac1609_4 ReceivedBroadcasts 0
scalar RSUExampleScenario.node[14].nic.mac1609_4 SentPackets 0
scalar RSUExampleScenario.node[14].nic.mac1609_4 SentAcknowledgements 0
scalar RSUExampleScenario.node[14].nic.mac1609_4 RetriesExceeded 0
scalar RSUExampleScenario.node[14].nic.mac1609_4 SNIRLostPackets 0
scalar RSUExampleScenario.node[14].nic.mac1609_4 RXTXLostPackets 0
scalar RSUExampleScenario.node[14].nic.mac1609_4 TotalLostPackets 0
scalar RSUExampleScenario.node[14].nic.mac1609_4 DroppedPacketsInMac 0
scalar RSUExampleScenario.node[14].nic.mac1609_4 TooLittleTime 0
scalar RSUExampleScenario.node[14].nic.mac1609_4 TimesIntoBackoff 0
scalar RSUExampleScenario.node[14].nic.mac1609_4 SlotsBackoff 0
scalar RSUExampleScenario.node[14].nic.mac1609_4 NumInternalContention 0
scalar RSUExampleScenario.node[14].nic.mac1609_4 totalBusyTime 0
scalar RSUExampleScenario.node[14].nic.mac1609_4 retriesExceeded:count 0
attr source org_car2x_veins_modules_mac_sigRetriesExceeded
scalar RSUExampleScenario.node[14].nic.mac1609_4 sentAcks:count 0
attr source org_car2x_veins_modules_mac_sigSentAck
scalar RSUExampleScenario.node[14].nic.mac1609_4 sentPackets:count 0
attr source org_car2x_veins_modules_mac_sigSentPacket
scalar RSUExampleScenario.node[14].nic.mac1609_4 collisions:count 0
attr source org_car2x_veins_modules_mac_sigCollision
scalar RSUExampleScenario.node[14].nic.mac1609_4 channelBusy:timeavg 0
attr source org_car2x_veins_modules_mac_sigChannelBusy
scalar RSUExampleScenario.node[14].veinsmobility startTime 27
scalar RSUExampleScenario.node[14].veinsmobility totalTime 22
scalar RSUExampleScenario.node[14].veinsmobility stopTime 50
scalar RSUExampleScenario.node[14].veinsmobility minSpeed 3.6532551916021
scalar RSUExampleScenario.node[14].veinsmobility maxSpeed 20.828941718699
scalar RSUExampleScenario.node[14].veinsmobility totalDistance 284.05566225798
scalar RSUExampleScenario.node[14].veinsmobility totalCO2Emission 133.75879753087
scalar RSUExampleScenario.node[17].appl generatedWSMs 0
scalar RSUExampleScenario.node[17].appl receivedWSMs 0
scalar RSUExampleScenario.node[17].appl generatedBSMs 0
scalar RSUExampleScenario.node[17].appl receivedBSMs 0
scalar RSUExampleScenario.node[17].appl generatedWSAs 0
scalar RSUExampleScenario.node[17].appl receivedWSAs 0
scalar RSUExampleScenario.node[17].nic.phy80211p busyTime 0
scalar RSUExampleScenario.node[17].nic.mac1609_4 ReceivedUnicastPackets 0
scalar RSUExampleScenario.node[17].nic.mac1609_4 ReceivedBroadcasts 0
scalar RSUExampleScenario.node[17].nic.mac1609_4 SentPackets 0
scalar RSUExampleScenario.node[17].nic.mac1609_4 SentAcknowledgements 0
scalar RSUExampleScenario.node[17].nic.mac1609_4 RetriesExceeded 0
scalar RSUExampleScenario.node[17].nic.mac1609_4 SNIRLostPackets 0
scalar RSUExampleScenario.node[17].nic.mac1609_4 RXTXLostPackets 0
scalar RSUExampleScenario.node[17].nic.mac1609_4 TotalLostPackets 0
scalar RSUExampleScenario.node[17].nic.mac1609_4 DroppedPacketsInMac 0
scalar RSUExampleScenario.node[17].nic.mac1609_4 TooLittleTime 0
scalar RSUExampleScenario.node[17].nic.mac1609_4 TimesIntoBackoff 0
scalar RSUExampleScenario.node[17].nic.mac1609_4 SlotsBackoff 0
scalar RSUExampleScenario.node[17].nic.mac1609_4 NumInternalContention 0
scalar RSUExampleScenario.node[17].nic.mac1609_4 totalBusyTime 0
scalar RSUExampleScenario.node[17].nic.mac1609_4 retriesExceeded:count 0
attr source org_car2x_veins_modules_mac_sigRetriesExceeded
scalar RSUExampleScenario.node[17].nic.mac1609_4 sentAcks:count 0
attr source org_car2x_veins_modules_mac_sigSentAck
scalar RSUExampleScenario.node[17].nic.mac1609_4 sentPackets:count 0
attr source org_car2x_veins_modules_mac_sigSentPacket
scalar RSUExampleScenario.node[17].nic.mac1609_4 collisions:count 0
attr source org_car2x_veins_modules_mac_sigCollision
scalar RSUExampleScenario.node[17].nic.mac1609_4 channelBusy:timeavg 0
attr source org_car2x_veins_modules_mac_sigChannelBusy
scalar RSUExampleScenario.node[17].veinsmobility startTime 35
scalar RSUExampleScenario.node[17].veinsmobility totalTime 16
scalar RSUExampleScenario.node[17].veinsmobility stopTime 52
scalar RSUExampleScenario.node[17].veinsmobility minSpeed 3.9310463069355
scalar RSUExampleScenario.node[17].veinsmobility maxSpeed 33.395299068438
scalar RSUExampleScenario.node[17].veinsmobility totalDistance 282.04921338588
scalar RSUExampleScenario.node[17].veinsmobility totalCO2Emission 186.3504347387
scalar RSUExampleScenario.node[21].appl generatedWSMs 0
scalar RSUExampleScenario.node[21].appl receivedWSMs 0
scalar RSUExampleScenario.node[21].appl generatedBSMs 0
scalar RSUExampleScenario.node[21].appl receivedBSMs 0
scalar RSUExampleScenario.node[21].appl generatedWSAs 0
scalar RSUExampleScenario.node[21].appl receivedWSAs 0
scalar RSUExampleScenario.node[21].nic.phy80211p busyTime 0
scalar RSUExampleScenario.node[21].nic.mac1609_4 ReceivedUnicastPackets 0
scalar RSUExampleScenario.node[21].nic.mac1609_4 ReceivedBroadcasts 0
scalar RSUExampleScenario.node[21].nic.mac1609_4 SentPackets 0
scalar RSUExampleScenario.node[21].nic.mac1609_4 SentAcknowledgements 0
scalar RSUExampleScenario.node[21].nic.mac1609_4 RetriesExceeded 0
scalar RSUExampleScenario.node[21].nic.mac1609_4 SNIRLostPackets 0
scalar RSUExampleScenario.node[21].nic.mac1609_4 RXTXLostPackets 0
scalar RSUExampleScenario.node[21].nic.mac1609_4 TotalLostPackets 0
scalar RSUExampleScenario.node[21].nic.mac1609_4 DroppedPacketsInMac 0
scalar RSUExampleScenario.node[21].nic.mac1609_4 TooLittleTime 0
scalar RSUExampleScenario.node[21].nic.mac1609_4 TimesIntoBackoff 0
scalar RSUExampleScenario.node[21].nic.mac1609_4 SlotsBackoff 0
scalar RSUExampleScenario.node[21].nic.mac1609_4 NumInternalContention 0
scalar RSUExampleScenario.node[21].nic.mac1609_4 totalBusyTime 0
scalar RSUExampleScenario.node[21].nic.mac1609_4 retriesExceeded:count 0
attr source org_car2x_veins_modules_mac_sigRetriesExceeded
scalar RSUExampleScenario.node[21].nic.mac1609_4 sentAcks:count 0
attr source org_car2x_veins_modules_mac_sigSentAck
scalar RSUExampleScenario.node[21].nic.mac1609_4 sentPackets:count 0
attr source org_car2x_veins_modules_mac_sigSentPacket
scalar RSUExampleScenario.node[21].nic.mac1609_4 collisions:count 0
attr source org_car2x_veins_modules_mac_sigCollision
scalar RSUExampleScenario.node[21].nic.mac1609_4 channelBusy:timeavg 0
attr source org_car2x_veins_modules_mac_sigChannelBusy
scalar RSUExampleScenario.node[21].veinsmobility startTime 40
scalar RSUExampleScenario.node[21].veinsmobility totalTime 16
scalar RSUExampleScenario.node[21].veinsmobility stopTime 57
scalar RSUExampleScenario.node[21].veinsmobility minSpeed 3.3999972693093
scalar RSUExampleScenario.node[21].veinsmobility maxSpeed 32.415342079146
scalar RSUExampleScenario.node[21].veinsmobility totalDistance 270.41379293245
scalar RSUExampleScenario.node[21].veinsmobility totalCO2Emission 176.60554436997
scalar RSUExampleScenario.node[19].appl generatedWSMs 0
scalar RSUExampleScenario.node[19].appl receivedWSMs 0
scalar RSUExampleScenario.node[19].appl generatedBSMs 0
scalar RSUExampleScenario.node[19].appl receivedBSMs 0
scalar RSUExampleScenario.node[19].appl generatedWSAs 0
scalar RSUExampleScenario.node[19].appl receivedWSAs 0
scalar RSUExampleScenario.node[19].nic.phy80211p busyTime 0
scalar RSUExampleScenario.node[19].nic.mac1609_4 ReceivedUnicastPackets 0
scalar RSUExampleScenario.node[19].nic.mac1609_4 ReceivedBroadcasts 0
scalar RSUExampleScenario.node[19].nic.mac1609_4 SentPackets 0
scalar RSUExampleScenario.node[19].nic.mac1609_4 SentAcknowledgements 0
scalar RSUExampleScenario.node[19].nic.mac1609_4 RetriesExceeded 0
scalar RSUExampleScenario.node[19].nic.mac1609_4 SNIRLostPackets 0
scalar RSUExampleScenario.node[19].nic.mac1609_4 RXTXLostPackets 0
scalar RSUExampleScenario.node[19].nic.mac1609_4 TotalLostPackets 0
scalar RSUExampleScenario.node[19].nic.mac1609_4 DroppedPacketsInMac 0
scalar RSUExampleScenario.node[19].nic.mac1609_4 TooLittleTime 0
scalar RSUExampleScenario.node[19].nic.mac1609_4 TimesIntoBackoff 0
scalar RSUExampleScenario.node[19].nic.mac1609_4 SlotsBackoff 0
scalar RSUExampleScenario.node[19].nic.mac1609_4 NumInternalContention 0
scalar RSUExampleScenario.node[19].nic.mac1609_4 totalBusyTime 0
scalar RSUExampleScenario.node[19].nic.mac1609_4 retriesExceeded:count 0
attr source org_car2x_veins_modules_mac_sigRetriesExceeded
scalar RSUExampleScenario.node[19].nic.mac1609_4 sentAcks:count 0
attr source org_car2x_veins_modules_mac_sigSentAck
scalar RSUExampleScenario.node[19].nic.mac1609_4 sentPackets:count 0
attr source org_car2x_veins_modules_mac_sigSentPacket
scalar RSUExampleScenario.node[19].nic.mac1609_4 collisions:count 0
attr source org_car2x_veins_modules_mac_sigCollision
scalar RSUExampleScenario.node[19].nic.mac1609_4 channelBusy:timeavg 0
attr source org_car2x_veins_modules_mac_sigChannelBusy
scalar RSUExampleScenario.node[19].veinsmobility startTime 37
scalar RSUExampleScenario.node[19].veinsmobility totalTime 21
scalar RSUExampleScenario.node[19].veinsmobility stopTime 59
scalar RSUExampleScenario.node[19].veinsmobility minSpeed 2.7239530982321
scalar RSUExampleScenario.node[19].veinsmobility maxSpeed 23.550683655227
scalar RSUExampleScenario.node[19].veinsmobility totalDistance 284.47152206151
scalar RSUExampleScenario.node[19].veinsmobility totalCO2Emission 147.33723365463
scalar RSUExampleScenario.node[9].appl generatedWSMs 0
scalar RSUExampleScenario.node[9].appl receivedWSMs 0
scalar RSUExampleScenario.node[9].appl generatedBSMs 0
scalar RSUExampleScenario.node[9].appl receivedBSMs 0
scalar RSUExampleScenario.node[9].appl generatedWSAs 0
scalar RSUExampleScenario.node[9].appl receivedWSAs 0
scalar RSUExampleScenario.node[9].nic.phy80211p busyTime 0
scalar RSUExampleScenario.node[9].nic.mac1609_4 ReceivedUnicastPackets 0
scalar RSUExampleScenario.node[9].nic.mac1609_4 ReceivedBroadcasts 0
scalar RSUExampleScenario.node[9].nic.mac1609_4 SentPackets 0
scalar RSUExampleScenario.node[9].nic.mac1609_4 SentAcknowledgements 0
scalar RSUExampleScenario.node[9].nic.mac1609_4 RetriesExceeded 0
scalar RSUExampleScenario.node[9].nic.mac1609_4 SNIRLostPackets 0
scalar RSUExampleScenario.node[9].nic.mac1609_4 RXTXLostPackets 0
scalar RSUExampleScenario.node[9].nic.mac1609_4 TotalLostPackets 0
scalar RSUExampleScenario.node[9].nic.mac1609_4 DroppedPacketsInMac 0
scalar RSUExampleScenario.node[9].nic.mac1609_4 TooLittleTime 0
scalar RSUExampleScenario.node[9].nic.mac1609_4 TimesIntoBackoff 0
scalar RSUExampleScenario.node[9].nic.mac1609_4 SlotsBackoff 0
scalar RSUExampleScenario.node[9].nic.mac1609_4 NumInternalContention 0
scalar RSUExampleScenario.node[9].nic.mac1609_4 totalBusyTime 0
scalar RSUExampleScenario.node[9].nic.mac1609_4 retriesExceeded:count 0
attr source org_car2x_veins_modules_mac_sigRetriesExceeded
scalar RSUExampleScenario.node[9].nic.mac1609_4 sentAcks:count 0
attr source org_car2x_veins_modules_mac_sigSentAck
scalar RSUExampleScenario.node[9].nic.mac1609_4 sentPackets:count 0
attr source org_car2x_veins_modules_mac_sigSentPacket
scalar RSUExampleScenario.node[9].nic.mac1609_4 collisions:count 0
attr source org_car2x_veins_modules_mac_sigCollision
scalar RSUExampleScenario.node[9].nic.mac1609_4 channelBusy:timeavg 0
attr source org_car2x_veins_modules_mac_sigChannelBusy
scalar RSUExampleScenario.node[9].veinsmobility startTime 18
scalar RSUExampleScenario.node[9].veinsmobility totalTime 41
scalar RSUExampleScenario.node[9].veinsmobility stopTime 60
scalar RSUExampleScenario.node[9].veinsmobility minSpeed 0
scalar RSUExampleScenario.node[9].veinsmobility maxSpeed 28.050636271714
scalar RSUExampleScenario.node[9].veinsmobility totalDistance 268.34126329918
scalar RSUExampleScenario.node[9].veinsmobility totalCO2Emission 180.06083882887
scalar RSUExampleScenario.node[22].appl generatedWSMs 0
scalar RSUExampleScenario.node[22].appl receivedWSMs 0
scalar RSUExampleScenario.node[22].appl generatedBSMs 0
scalar RSUExampleScenario.node[22].appl receivedBSMs 0
scalar RSUExampleScenario.node[22].appl generatedWSAs 0
scalar RSUExampleScenario.node[22].appl receivedWSAs 0
scalar RSUExampleScenario.node[22].nic.phy80211p busyTime 0
scalar RSUExampleScenario.node[22].nic.mac1609_4 ReceivedUnicastPackets 0
scalar RSUExampleScenario.node[22].nic.mac1609_4 ReceivedBroadcasts 0
scalar RSUExampleScenario.node[22].nic.mac1609_4 SentPackets 0
scalar RSUExampleScenario.node[22].nic.mac1609_4 SentAcknowledgements 0
scalar RSUExampleScenario.node[22].nic.mac1609_4 RetriesExceeded 0
scalar RSUExampleScenario.node[22].nic.mac1609_4 SNIRLostPackets 0
scalar RSUExampleScenario.node[22].nic.mac1609_4 RXTXLostPackets 0
scalar RSUExampleScenario.node[22].nic.mac1609_4 TotalLostPackets 0
scalar RSUExampleScenario.node[22].nic.mac1609_4 DroppedPacketsInMac 0
scalar RSUExampleScenario.node[22].nic.mac1609_4 TooLittleTime 0
scalar RSUExampleScenario.node[22].nic.mac1609_4 TimesIntoBackoff 0
scalar RSUExampleScenario.node[22].nic.mac1609_4 SlotsBackoff 0
scalar RSUExampleScenario.node[22].nic.mac1609_4 NumInternalContention 0
scalar RSUExampleScenario.node[22].nic.mac1609_4 totalBusyTime 0
scalar RSUExampleScenario.node[22].nic.mac1609_4 retriesExceeded:count 0
attr source org_car2x_veins_modules_mac_sigRetriesExceeded
scalar RSUExampleScenario.node[22].nic.mac1609_4 sentAcks:count 0
attr source org_car2x_veins_modules_mac_sigSentAck
scalar RSUExampleScenario.node[22].nic.mac1609_4 sentPackets:count 0
attr source org_car2x_veins_modules_mac_sigSentPacket
scalar RSUExampleScenario.node[22].nic.mac1609_4 collisions:count 0
attr source org_car2x_veins_modules_mac_sigCollision
scalar RSUExampleScenario.node[22].nic.mac1609_4 channelBusy:timeavg 0
attr source org_car2x_veins_modules_mac_sigChannelBusy
scalar RSUExampleScenario.node[22].veinsmobility startTime 42
scalar RSUExampleScenario.node[22].veinsmobility totalTime 18
scalar RSUExampleScenario.node[22].veinsmobility stopTime 61
scalar RSUExampleScenario.node[22].veinsmobility minSpeed 2.3494475005942
scalar RSUExampleScenario.node[22].veinsmobility maxSpeed 29.059106926529
scalar RSUExampleScenario.node[22].veinsmobility totalDistance 273.0764048195
scalar RSUExampleScenario.node[22].veinsmobility totalCO2Emission 150.36196040113
scalar RSUExampleScenario.node[23].appl generatedWSMs 0
scalar RSUExampleScenario.node[23].appl receivedWSMs 0
scalar RSUExampleScenario.node[23].appl generatedBSMs 0
scalar RSUExampleScenario.node[23].appl receivedBSMs 0
scalar RSUExampleScenario.node[23].appl generatedWSAs 0
scalar RSUExampleScenario.node[23].appl receivedWSAs 0
scalar RSUExampleScenario.node[23].nic.phy80211p busyTime 0
scalar RSUExampleScenario.node[23].nic.mac1609_4 ReceivedUnicastPackets 0
scalar RSUExampleScenario.node[23].nic.mac1609_4 ReceivedBroadcasts 0
scalar RSUExampleScenario.node[23].nic.mac1609_4 SentPackets 0
scalar RSUExampleScenario.node[23].nic.mac1609_4 SentAcknowledgements 0
scalar RSUExampleScenario.node[23].nic.mac1609_4 RetriesExceeded 0
scalar RSUExampleScenario.node[23].nic.mac1609_4 SNIRLostPackets 0
scalar RSUExampleScenario.node[23].nic.mac1609_4 RXTXLostPackets 0
scalar RSUExampleScenario.node[23].nic.mac1609_4 TotalLostPackets 0
scalar RSUExampleScenario.node[23].nic.mac1609_4 DroppedPacketsInMac 0
scalar RSUExampleScenario.node[23].nic.mac1609_4 TooLittleTime 0
scalar RSUExampleScenario.node[23].nic.mac1609_4 TimesIntoBackoff 0
scalar RSUExampleScenario.node[23].nic.mac1609_4 SlotsBackoff 0
scalar RSUExampleScenario.node[23].nic.mac1609_4 NumInternalContention 0
scalar RSUExampleScenario.node[23].nic.mac1609_4 totalBusyTime 0
scalar RSUExampleScenario.node[23].nic.mac1609_4 retriesExceeded:count 0
attr source org_car2x_veins_modules_mac_sigRetriesExceeded
scalar RSUExampleScenario.node[23].nic.mac1609_4 sentAcks:count 0
attr source org_car2x_veins_modules_mac_sigSentAck
scalar RSUExampleScenario.node[23].nic.mac1609_4 sentPackets:count 0
attr source org_car2x_veins_modules_mac_sigSentPacket
scalar RSUExampleScenario.node[23].nic.mac1609_4 collisions:count 0
attr source org_car2x_veins_modules_mac_sigCollision
scalar RSUExampleScenario.node[23].nic.mac1609_4 channelBusy:timeavg 0
attr source org_car2x_veins_modules_mac_sigChannelBusy
scalar RSUExampleScenario.node[23].veinsmobility startTime 45
scalar RSUExampleScenario.node[23].veinsmobility totalTime 16
scalar RSUExampleScenario.node[23].veinsmobility stopTime 62
scalar RSUExampleScenario.node[23].veinsmobility minSpeed 2.9880975998364
scalar RSUExampleScenario.node[23].veinsmobility maxSpeed 32.484894815139
scalar RSUExampleScenario.node[23].veinsmobility totalDistance 270.72976619927
scalar RSUExampleScenario.node[23].veinsmobility totalCO2Emission 178.04459834218
scalar RSUExampleScenario.node[24].appl generatedWSMs 0
scalar RSUExampleScenario.node[24].appl receivedWSMs 0
scalar RSUExampleScenario.node[24].appl generatedBSMs 0
scalar RSUExampleScenario.node[24].appl receivedBSMs 0
scalar RSUExampleScenario.node[24].appl generatedWSAs 0
scalar RSUExampleScenario.node[24].appl receivedWSAs 0
scalar RSUExampleScenario.node[24].nic.phy80211p busyTime 0
scalar RSUExampleScenario.node[24].nic.mac1609_4 ReceivedUnicastPackets 0
scalar RSUExampleScenario.node[24].nic.mac1609_4 ReceivedBroadcasts 0
scalar RSUExampleScenario.node[24].nic.mac1609_4 SentPackets 0
scalar RSUExampleScenario.node[24].nic.mac1609_4 SentAcknowledgements 0
scalar RSUExampleScenario.node[24].nic.mac1609_4 RetriesExceeded 0
scalar RSUExampleScenario.node[24].nic.mac1609_4 SNIRLostPackets 0
scalar RSUExampleScenario.node[24].nic.mac1609_4 RXTXLostPackets 0
scalar RSUExampleScenario.node[24].nic.mac1609_4 TotalLostPackets 0
scalar RSUExampleScenario.node[24].nic.mac1609_4 DroppedPacketsInMac 0
scalar RSUExampleScenario.node[24].nic.mac1609_4 TooLittleTime 0
scalar RSUExampleScenario.node[24].nic.mac1609_4 TimesIntoBackoff 0
scalar RSUExampleScenario.node[24].nic.mac1609_4 SlotsBackoff 0
scalar RSUExampleScenario.node[24].nic.mac1609_4 NumInternalContention 0
scalar RSUExampleScenario.node[24].nic.mac1609_4 totalBusyTime 0
scalar RSUExampleScenario.node[24].nic.mac1609_4 retriesExceeded:count 0
attr source org_car2x_veins_modules_mac_sigRetriesExceeded
scalar RSUExampleScenario.node[24].nic.mac1609_4 sentAcks:count 0
attr source org_car2x_veins_modules_mac_sigSentAck
scalar RSUExampleScenario.node[24].nic.mac1609_4 sentPackets:count 0
attr source org_car2x_veins_modules_mac_sigSentPacket
scalar RSUExampleScenario.node[24].nic.mac1609_4 collisions:count 0
attr source org_car2x_veins_modules_mac_sigCollision
scalar RSUExampleScenario.node[24].nic.mac1609_4 channelBusy:timeavg 0
attr source org_car2x_veins_modules_mac_sigChannelBusy
scalar RSUExampleScenario.node[24].veinsmobility startTime 48
scalar RSUExampleScenario.node[24].veinsmobility totalTime 16
scalar RSUExampleScenario.node[24].veinsmobility stopTime 65
scalar RSUExampleScenario.node[24].veinsmobility minSpeed 3.7066880847726
scalar RSUExampleScenario.node[24].veinsmobility maxSpeed 33.439583954884
scalar RSUExampleScenario.node[24].veinsmobility totalDistance 279.49607094133
scalar RSUExampleScenario.node[24].veinsmobility totalCO2Emission 186.89015470067
scalar RSUExampleScenario.node[26].appl generatedWSMs 0
scalar RSUExampleScenario.node[26].appl receivedWSMs 0
scalar RSUExampleScenario.node[26].appl generatedBSMs 0
scalar RSUExampleScenario.node[26].appl receivedBSMs 0
scalar RSUExampleScenario.node[26].appl generatedWSAs 0
scalar RSUExampleScenario.node[26].appl receivedWSAs 0
scalar RSUExampleScenario.node[26].nic.phy80211p busyTime 0
scalar RSUExampleScenario.node[26].nic.mac1609_4 ReceivedUnicastPackets 0
scalar RSUExampleScenario.node[26].nic.mac1609_4 ReceivedBroadcasts 0
scalar RSUExampleScenario.node[26].nic.mac1609_4 SentPackets 0
scalar RSUExampleScenario.node[26].nic.mac1609_4 SentAcknowledgements 0
scalar RSUExampleScenario.node[26].nic.mac1609_4 RetriesExceeded 0
scalar RSUExampleScenario.node[26].nic.mac1609_4 SNIRLostPackets 0
scalar RSUExampleScenario.node[26].nic.mac1609_4 RXTXLostPackets 0
scalar RSUExampleScenario.node[26].nic.mac1609_4 TotalLostPackets 0
scalar RSUExampleScenario.node[26].nic.mac1609_4 DroppedPacketsInMac 0
scalar RSUExampleScenario.node[26].nic.mac1609_4 TooLittleTime 0
scalar RSUExampleScenario.node[26].nic.mac1609_4 TimesIntoBackoff 0
scalar RSUExampleScenario.node[26].nic.mac1609_4 SlotsBackoff 0
scalar RSUExampleScenario.node[26].nic.mac1609_4 NumInternalContention 0
scalar RSUExampleScenario.node[26].nic.mac1609_4 totalBusyTime 0
scalar RSUExampleScenario.node[26].nic.mac1609_4 retriesExceeded:count 0
attr source org_car2x_veins_modules_mac_sigRetriesExceeded
scalar RSUExampleScenario.node[26].nic.mac1609_4 sentAcks:count 0
attr source org_car2x_veins_modules_mac_sigSentAck
scalar RSUExampleScenario.node[26].nic.mac1609_4 sentPackets:count 0
attr source org_car2x_veins_modules_mac_sigSentPacket
scalar RSUExampleScenario.node[26].nic.mac1609_4 collisions:count 0
attr source org_car2x_veins_modules_mac_sigCollision
scalar RSUExampleScenario.node[26].nic.mac1609_4 channelBusy:timeavg 0
attr source org_car2x_veins_modules_mac_sigChannelBusy
scalar RSUExampleScenario.node[26].veinsmobility startTime 53
scalar RSUExampleScenario.node[26].veinsmobility totalTime 16
scalar RSUExampleScenario.node[26].veinsmobility stopTime 70
scalar RSUExampleScenario.node[26].veinsmobility minSpeed 3.0350712236516
scalar RSUExampleScenario.node[26].veinsmobility maxSpeed 32.286145245974
scalar RSUExampleScenario.node[26].veinsmobility totalDistance 268.24930324796
scalar RSUExampleScenario.node[26].veinsmobility totalCO2Emission 175.97658024422
scalar RSUExampleScenario.node[25].appl generatedWSMs 0
scalar RSUExampleScenario.node[25].appl receivedWSMs 0
scalar RSUExampleScenario.node[25].appl generatedBSMs 0
scalar RSUExampleScenario.node[25].appl receivedBSMs 0
scalar RSUExampleScenario.node[25].appl generatedWSAs 0
scalar RSUExampleScenario.node[25].appl receivedWSAs 0
scalar RSUExampleScenario.node[25].nic.phy80211p busyTime 0
scalar RSUExampleScenario.node[25].nic.mac1609_4 ReceivedUnicastPackets 0
scalar RSUExampleScenario.node[25].nic.mac1609_4 ReceivedBroadcasts 0
scalar RSUExampleScenario.node[25].nic.mac1609_4 SentPackets 0
scalar RSUExampleScenario.node[25].nic.mac1609_4 SentAcknowledgements 0
scalar RSUExampleScenario.node[25].nic.mac1609_4 RetriesExceeded 0
scalar RSUExampleScenario.node[25].nic.mac1609_4 SNIRLostPackets 0
scalar RSUExampleScenario.node[25].nic.mac1609_4 RXTXLostPackets 0
scalar RSUExampleScenario.node[25].nic.mac1609_4 TotalLostPackets 0
scalar RSUExampleScenario.node[25].nic.mac1609_4 DroppedPacketsInMac 0
scalar RSUExampleScenario.node[25].nic.mac1609_4 TooLittleTime 0
scalar RSUExampleScenario.node[25].nic.mac1609_4 TimesIntoBackoff 0
scalar RSUExampleScenario.node[25].nic.mac1609_4 SlotsBackoff 0
scalar RSUExampleScenario.node[25].nic.mac1609_4 NumInternalContention 0
scalar RSUExampleScenario.node[25].nic.mac1609_4 totalBusyTime 0
scalar RSUExampleScenario.node[25].nic.mac1609_4 retriesExceeded:count 0
attr source org_car2x_veins_modules_mac_sigRetriesExceeded
scalar RSUExampleScenario.node[25].nic.mac1609_4 sentAcks:count 0
attr source org_car2x_veins_modules_mac_sigSentAck
scalar RSUExampleScenario.node[25].nic.mac1609_4 sentPackets:count 0
attr source org_car2x_veins_modules_mac_sigSentPacket
scalar RSUExampleScenario.node[25].nic.mac1609_4 collisions:count 0
attr source org_car2x_veins_modules_mac_sigCollision
scalar RSUExampleScenario.node[25].nic.mac1609_4 channelBusy:timeavg 0
attr source org_car2x_veins_modules_mac_sigChannelBusy
scalar RSUExampleScenario.node[25].veinsmobility startTime 50
scalar RSUExampleScenario.node[25].veinsmobility totalTime 22
scalar RSUExampleScenario.node[25].veinsmobility stopTime 73
scalar RSUExampleScenario.node[25].veinsmobility minSpeed 2.3796721134973
scalar RSUExampleScenario.node[25].veinsmobility maxSpeed 23.147621895099
scalar RSUExampleScenario.node[25].veinsmobility totalDistance 282.3917439677
scalar RSUExampleScenario.node[25].veinsmobility totalCO2Emission 146.22516735469
scalar RSUExampleScenario.node[28].appl generatedWSMs 0
scalar RSUExampleScenario.node[28].appl receivedWSMs 0
scalar RSUExampleScenario.node[28].appl generatedBSMs 0
scalar RSUExampleScenario.node[28].appl receivedBSMs 0
scalar RSUExampleScenario.node[28].appl generatedWSAs 0
scalar RSUExampleScenario.node[28].appl receivedWSAs 0
scalar RSUExampleScenario.node[28].nic.phy80211p busyTime 0
scalar RSUExampleScenario.node[28].nic.mac1609_4 ReceivedUnicastPackets 0
scalar RSUExampleScenario.node[28].nic.mac1609_4 ReceivedBroadcasts 0
scalar RSUExampleScenario.node[28].nic.mac1609_4 SentPackets 0
scalar RSUExampleScenario.node[28].nic.mac1609_4 SentAcknowledgements 0
scalar RSUExampleScenario.node[28].nic.mac1609_4 RetriesExceeded 0
scalar RSUExampleScenario.node[28].nic.mac1609_4 SNIRLostPackets 0
scalar RSUExampleScenario.node[28].nic.mac1609_4 RXTXLostPackets 0
scalar RSUExampleScenario.node[28].nic.mac1609_4 TotalLostPackets 0
scalar RSUExampleScenario.node[28].nic.mac1609_4 DroppedPacketsInMac 0
scalar RSUExampleScenario.node[28].nic.mac1609_4 TooLittleTime 0
scalar RSUExampleScenario.node[28].nic.mac1609_4 TimesIntoBackoff 0
scalar RSUExampleScenario.node[28].nic.mac1609_4 SlotsBackoff 0
scalar RSUExampleScenario.node[28].nic.mac1609_4 NumInternalContention 0
scalar RSUExampleScenario.node[28].nic.mac1609_4 totalBusyTime 0
scalar RSUExampleScenario.node[28].nic.mac1609_4 retriesExceeded:count 0
attr source org_car2x_veins_modules_mac_sigRetriesExceeded
scalar RSUExampleScenario.node[28].nic.mac1609_4 sentAcks:count 0
attr source org_car2x_veins_modules_mac_sigSentAck
scalar RSUExampleScenario.node[28].nic.mac1609_4 sentPackets:count 0
attr source org_car2x_veins_modules_mac_sigSentPacket
scalar RSUExampleScenario.node[28].nic.mac1609_4 collisions:count 0
attr source org_car2x_veins_modules_mac_sigCollision
scalar RSUExampleScenario.node[28].nic.mac1609_4 channelBusy:timeavg 0
attr source org_car2x_veins_modules_mac_sigChannelBusy
scalar RSUExampleScenario.node[28].veinsmobility startTime 56
scalar RSUExampleScenario.node[28].veinsmobility totalTime 16
scalar RSUExampleScenario.node[28].veinsmobility stopTime 73
scalar RSUExampleScenario.node[28].veinsmobility minSpeed 3.7312055229683
scalar RSUExampleScenario.node[28].veinsmobility maxSpeed 33.22469416241
scalar RSUExampleScenario.node[28].veinsmobility totalDistance 276.841687966
scalar RSUExampleScenario.node[28].veinsmobility totalCO2Emission 184.44528320301
scalar RSUExampleScenario.node[30].appl generatedWSMs 0
scalar RSUExampleScenario.node[30].appl receivedWSMs 0
scalar RSUExampleScenario.node[30].appl generatedBSMs 0
scalar RSUExampleScenario.node[30].appl receivedBSMs 0
scalar RSUExampleScenario.node[30].appl generatedWSAs 0
scalar RSUExampleScenario.node[30].appl receivedWSAs 0
scalar RSUExampleScenario.node[30].nic.phy80211p busyTime 0
scalar RSUExampleScenario.node[30].nic.mac1609_4 ReceivedUnicastPackets 0
scalar RSUExampleScenario.node[30].nic.mac1609_4 ReceivedBroadcasts 0
scalar RSUExampleScenario.node[30].nic.mac1609_4 SentPackets 0
scalar RSUExampleScenario.node[30].nic.mac1609_4 SentAcknowledgements 0
scalar RSUExampleScenario.node[30].nic.mac1609_4 RetriesExceeded 0
scalar RSUExampleScenario.node[30].nic.mac1609_4 SNIRLostPackets 0
scalar RSUExampleScenario.node[30].nic.mac1609_4 RXTXLostPackets 0
scalar RSUExampleScenario.node[30].nic.mac1609_4 TotalLostPackets 0
scalar RSUExampleScenario.node[30].nic.mac1609_4 DroppedPacketsInMac 0
scalar RSUExampleScenario.node[30].nic.mac1609_4 TooLittleTime 0
scalar RSUExampleScenario.node[30].nic.mac1609_4 TimesIntoBackoff 0
scalar RSUExampleScenario.node[30].nic.mac1609_4 SlotsBackoff 0
scalar RSUExampleScenario.node[30].nic.mac1609_4 NumInternalContention 0
scalar RSUExampleScenario.node[30].nic.mac1609_4 totalBusyTime 0
scalar RSUExampleScenario.node[30].nic.mac1609_4 retriesExceeded:count 0
attr source org_car2x_veins_modules_mac_sigRetriesExceeded
scalar RSUExampleScenario.node[30].nic.mac1609_4 sentAcks:count 0
attr source org_car2x_veins_modules_mac_sigSentAck
scalar RSUExampleScenario.node[30].nic.mac1609_4 sentPackets:count 0
attr source org_car2x_veins_modules_mac_sigSentPacket
scalar RSUExampleScenario.node[30].nic.mac1609_4 collisions:count 0
attr source org_car2x_veins_modules_mac_sigCollision
scalar RSUExampleScenario.node[30].nic.mac1609_4 channelBusy:timeavg 0
attr source org_car2x_veins_modules_mac_sigChannelBusy
scalar RSUExampleScenario.node[30].veinsmobility startTime 58
scalar RSUExampleScenario.node[30].veinsmobility totalTime 17
scalar RSUExampleScenario.node[30].veinsmobility stopTime 76
scalar RSUExampleScenario.node[30].veinsmobility minSpeed 2.523848307469
scalar RSUExampleScenario.node[30].veinsmobility maxSpeed 33.710908692296
scalar RSUExampleScenario.node[30].veinsmobility totalDistance 292.12949587098
scalar RSUExampleScenario.node[30].veinsmobility totalCO2Emission 192.92231019617
scalar RSUExampleScenario.node[31].appl generatedWSMs 0
scalar RSUExampleScenario.node[31].appl receivedWSMs 0
scalar RSUExampleScenario.node[31].appl generatedBSMs 0
scalar RSUExampleScenario.node[31].appl receivedBSMs 0
scalar RSUExampleScenario.node[31].appl generatedWSAs 0
scalar RSUExampleScenario.node[31].appl receivedWSAs 0
scalar RSUExampleScenario.node[31].nic.phy80211p busyTime 0
scalar RSUExampleScenario.node[31].nic.mac1609_4 ReceivedUnicastPackets 0
scalar RSUExampleScenario.node[31].nic.mac1609_4 ReceivedBroadcasts 0
scalar RSUExampleScenario.node[31].nic.mac1609_4 SentPackets 0
scalar RSUExampleScenario.node[31].nic.mac1609_4 SentAcknowledgements 0
scalar RSUExampleScenario.node[31].nic.mac1609_4 RetriesExceeded 0
scalar RSUExampleScenario.node[31].nic.mac1609_4 SNIRLostPackets 0
scalar RSUExampleScenario.node[31].nic.mac1609_4 RXTXLostPackets 0
scalar RSUExampleScenario.node[31].nic.mac1609_4 TotalLostPackets 0
scalar RSUExampleScenario.node[31].nic.mac1609_4 DroppedPacketsInMac 0
scalar RSUExampleScenario.node[31].nic.mac1609_4 TooLittleTime 0
scalar RSUExampleScenario.node[31].nic.mac1609_4 TimesIntoBackoff 0
scalar RSUExampleScenario.node[31].nic.mac1609_4 SlotsBackoff 0
scalar RSUExampleScenario.node[31].nic.mac1609_4 NumInternalContention 0
scalar RSUExampleScenario.node[31].nic.mac1609_4 totalBusyTime 0
scalar RSUExampleScenario.node[31].nic.mac1609_4 retriesExceeded:count 0
attr source org_car2x_veins_modules_mac_sigRetriesExceeded
scalar RSUExampleScenario.node[31].nic.mac1609_4 sentAcks:count 0
attr source org_car2x_veins_modules_mac_sigSentAck
scalar RSUExampleScenario.node[31].nic.mac1609_4 sentPackets:count 0
attr source org_car2x_veins_modules_mac_sigSentPacket
scalar RSUExampleScenario.node[31].nic.mac1609_4 collisions:count 0
attr source org_car2x_veins_modules_mac_sigCollision
scalar RSUExampleScenario.node[31].nic.mac1609_4 channelBusy:timeavg 0
attr source org_car2x_veins_modules_mac_sigChannelBusy
scalar RSUExampleScenario.node[31].veinsmobility startTime 61
scalar RSUExampleScenario.node[31].veinsmobility totalTime 16
scalar RSUExampleScenario.node[31].veinsmobility stopTime 78
scalar RSUExampleScenario.node[31].veinsmobility minSpeed 3.2792662612884
scalar RSUExampleScenario.node[31].veinsmobility maxSpeed 32.866010420744
scalar RSUExampleScenario.node[31].veinsmobility totalDistance 273.54981702321
scalar RSUExampleScenario.node[31].veinsmobility totalCO2Emission 181.34102888121
scalar RSUExampleScenario.node[12].appl generatedWSMs 0
scalar RSUExampleScenario.node[12].appl receivedWSMs 0
scalar RSUExampleScenario.node[12].appl generatedBSMs 0
scalar RSUExampleScenario.node[12].appl receivedBSMs 0
scalar RSUExampleScenario.node[12].appl generatedWSAs 0
scalar RSUExampleScenario.node[12].appl receivedWSAs 0
scalar RSUExampleScenario.node[12].nic.phy80211p busyTime 0
scalar RSUExampleScenario.node[12].nic.mac1609_4 ReceivedUnicastPackets 0
scalar RSUExampleScenario.node[12].nic.mac1609_4 ReceivedBroadcasts 0
scalar RSUExampleScenario.node[12].nic.mac1609_4 SentPackets 0
scalar RSUExampleScenario.node[12].nic.mac1609_4 SentAcknowledgements 0
scalar RSUExampleScenario.node[12].nic.mac1609_4 RetriesExceeded 0
scalar RSUExampleScenario.node[12].nic.mac1609_4 SNIRLostPackets 0
scalar RSUExampleScenario.node[12].nic.mac1609_4 RXTXLostPackets 0
scalar RSUExampleScenario.node[12].nic.mac1609_4 TotalLostPackets 0
scalar RSUExampleScenario.node[12].nic.mac1609_4 DroppedPacketsInMac 0
scalar RSUExampleScenario.node[12].nic.mac1609_4 TooLittleTime 0
scalar RSUExampleScenario.node[12].nic.mac1609_4 TimesIntoBackoff 0
scalar RSUExampleScenario.node[12].nic.mac1609_4 SlotsBackoff 0
scalar RSUExampleScenario.node[12].nic.mac1609_4 NumInternalContention 0
scalar RSUExampleScenario.node[12].nic.mac1609_4 totalBusyTime 0
scalar RSUExampleScenario.node[12].nic.mac1609_4 retriesExceeded:count 0
attr source org_car2x_veins_modules_mac_sigRetriesExceeded
scalar RSUExampleScenario.node[12].nic.mac1609_4 sentAcks:count 0
attr source org_car2x_veins_modules_mac_sigSentAck
scalar RSUExampleScenario.node[12].nic.mac1609_4 sentPackets:count 0
attr source org_car2x_veins_modules_mac_sigSentPacket
scalar RSUExampleScenario.node[12].nic.mac1609_4 collisions:count 0
attr source org_car2x_veins_modules_mac_sigCollision
scalar RSUExampleScenario.node[12].nic.mac1609_4 channelBusy:timeavg 0
attr source org_car2x_veins_modules_mac_sigChannelBusy
scalar RSUExampleScenario.node[12].veinsmobility startTime 21
scalar RSUExampleScenario.node[12].veinsmobility totalTime 57
scalar RSUExampleScenario.node[12].veinsmobility stopTime 79
scalar RSUExampleScenario.node[12].veinsmobility minSpeed 0
scalar RSUExampleScenario.node[12].veinsmobility maxSpeed 18.426291382059
scalar RSUExampleScenario.node[12].veinsmobility totalDistance 265.44347913251
scalar RSUExampleScenario.node[12].veinsmobility totalCO2Emission 163.43532516127
scalar RSUExampleScenario.node[18].appl generatedWSMs 0
scalar RSUExampleScenario.node[18].appl receivedWSMs 0
scalar RSUExampleScenario.node[18].appl generatedBSMs 0
scalar RSUExampleScenario.node[18].appl receivedBSMs 0
scalar RSUExampleScenario.node[18].appl generatedWSAs 0
scalar RSUExampleScenario.node[18].appl receivedWSAs 0
scalar RSUExampleScenario.node[18].nic.phy80211p busyTime 0
scalar RSUExampleScenario.node[18].nic.mac1609_4 ReceivedUnicastPackets 0
scalar RSUExampleScenario.node[18].nic.mac1609_4 ReceivedBroadcasts 0
scalar RSUExampleScenario.node[18].nic.mac1609_4 SentPackets 0
scalar RSUExampleScenario.node[18].nic.mac1609_4 SentAcknowledgements 0
scalar RSUExampleScenario.node[18].nic.mac1609_4 RetriesExceeded 0
scalar RSUExampleScenario.node[18].nic.mac1609_4 SNIRLostPackets 0
scalar RSUExampleScenario.node[18].nic.mac1609_4 RXTXLostPackets 0
scalar RSUExampleScenario.node[18].nic.mac1609_4 TotalLostPackets 0
scalar RSUExampleScenario.node[18].nic.mac1609_4 DroppedPacketsInMac 0
scalar RSUExampleScenario.node[18].nic.mac1609_4 TooLittleTime 0
scalar RSUExampleScenario.node[18].nic.mac1609_4 TimesIntoBackoff 0
scalar RSUExampleScenario.node[18].nic.mac1609_4 SlotsBackoff 0
scalar RSUExampleScenario.node[18].nic.mac1609_4 NumInternalContention 0
scalar RSUExampleScenario.node[18].nic.mac1609_4 totalBusyTime 0
scalar RSUExampleScenario.node[18].nic.mac1609_4 retriesExceeded:count 0
attr source org_car2x_veins_modules_mac_sigRetriesExceeded
scalar RSUExampleScenario.node[18].nic.mac1609_4 sentAcks:count 0
attr source org_car2x_veins_modules_mac_sigSentAck
scalar RSUExampleScenario.node[18].nic.mac1609_4 sentPackets:count 0
attr source org_car2x_veins_modules_mac_sigSentPacket
scalar RSUExampleScenario.node[18].nic.mac1609_4 collisions:count 0
attr source org_car2x_veins_modules_mac_sigCollision
scalar RSUExampleScenario.node[18].nic.mac1609_4 channelBusy:timeavg 0
attr source org_car2x_veins_modules_mac_sigChannelBusy
scalar RSUExampleScenario.node[18].veinsmobility startTime 36
scalar RSUExampleScenario.node[18].veinsmobility totalTime 43
scalar RSUExampleScenario.node[18].veinsmobility stopTime 80
scalar RSUExampleScenario.node[18].veinsmobility minSpeed 0
scalar RSUExampleScenario.node[18].veinsmobility maxSpeed 28.508028992665
scalar RSUExampleScenario.node[18].veinsmobility totalDistance 279.96943896532
scalar RSUExampleScenario.node[18].veinsmobility totalCO2Emission 185.08675109989
scalar RSUExampleScenario.node[33].appl generatedWSMs 0
scalar RSUExampleScenario.node[33].appl receivedWSMs 0
scalar RSUExampleScenario.node[33].appl generatedBSMs 0
scalar RSUExampleScenario.node[33].appl receivedBSMs 0
scalar RSUExampleScenario.node[33].appl generatedWSAs 0
scalar RSUExampleScenario.node[33].appl receivedWSAs 0
scalar RSUExampleScenario.node[33].nic.phy80211p busyTime 0
scalar RSUExampleScenario.node[33].nic.mac1609_4 ReceivedUnicastPackets 0
scalar RSUExampleScenario.node[33].nic.mac1609_4 ReceivedBroadcasts 0
scalar RSUExampleScenario.node[33].nic.mac1609_4 SentPackets 0
scalar RSUExampleScenario.node[33].nic.mac1609_4 SentAcknowledgements 0
scalar RSUExampleScenario.node[33].nic.mac1609_4 RetriesExceeded 0
scalar RSUExampleScenario.node[33].nic.mac1609_4 SNIRLostPackets 0
scalar RSUExampleScenario.node[33].nic.mac1609_4 RXTXLostPackets 0
scalar RSUExampleScenario.node[33].nic.mac1609_4 TotalLostPackets 0
scalar RSUExampleScenario.node[33].nic.mac1609_4 DroppedPacketsInMac 0
scalar RSUExampleScenario.node[33].nic.mac1609_4 TooLittleTime 0
scalar RSUExampleScenario.node[33].nic.mac1609_4 TimesIntoBackoff 0
scalar RSUExampleScenario.node[33].nic.mac1609_4 SlotsBackoff 0
scalar RSUExampleScenario.node[33].nic.mac1609_4 NumInternalContention 0
scalar RSUExampleScenario.node[33].nic.mac1609_4 totalBusyTime 0
scalar RSUExampleScenario.node[33].nic.mac1609_4 retriesExceeded:count 0
attr source org_car2x_veins_modules_mac_sigRetriesExceeded
scalar RSUExampleScenario.node[33].nic.mac1609_4 sentAcks:count 0
attr source org_car2x_veins_modules_mac_sigSentAck
scalar RSUExampleScenario.node[33].nic.mac1609_4 sentPackets:count 0
attr source org_car2x_veins_modules_mac_sigSentPacket
scalar RSUExampleScenario.node[33].nic.mac1609_4 collisions:count 0
attr source org_car2x_veins_modules_mac_sigCollision
scalar RSUExampleScenario.node[33].nic.mac1609_4 channelBusy:timeavg 0
attr source org_car2x_veins_modules_mac_sigChannelBusy
scalar RSUExampleScenario.node[33].veinsmobility startTime 66
scalar RSUExampleScenario.node[33].veinsmobility totalTime 16
scalar RSUExampleScenario.node[33].veinsmobility stopTime 83
scalar RSUExampleScenario.node[33].veinsmobility minSpeed 2.7778092959617
scalar RSUExampleScenario.node[33].veinsmobility maxSpeed 31.996549468993
scalar RSUExampleScenario.node[33].veinsmobility totalDistance 262.43642908542
scalar RSUExampleScenario.node[33].veinsmobility totalCO2Emission 172.9620925159
scalar RSUExampleScenario.node[32].appl generatedWSMs 0
scalar RSUExampleScenario.node[32].appl receivedWSMs 0
scalar RSUExampleScenario.node[32].appl generatedBSMs 0
scalar RSUExampleScenario.node[32].appl receivedBSMs 0
scalar RSUExampleScenario.node[32].appl generatedWSAs 0
scalar RSUExampleScenario.node[32].appl receivedWSAs 0
scalar RSUExampleScenario.node[32].nic.phy80211p busyTime 0
scalar RSUExampleScenario.node[32].nic.mac1609_4 ReceivedUnicastPackets 0
scalar RSUExampleScenario.node[32].nic.mac1609_4 ReceivedBroadcasts 0
scalar RSUExampleScenario.node[32].nic.mac1609_4 SentPackets 0
scalar RSUExampleScenario.node[32].nic.mac1609_4 SentAcknowledgements 0
scalar RSUExampleScenario.node[32].nic.mac1609_4 RetriesExceeded 0
scalar RSUExampleScenario.node[32].nic.mac1609_4 SNIRLostPackets 0
scalar RSUExampleScenario.node[32].nic.mac1609_4 RXTXLostPackets 0
scalar RSUExampleScenario.node[32].nic.mac1609_4 TotalLostPackets 0
scalar RSUExampleScenario.node[32].nic.mac1609_4 DroppedPacketsInMac 0
scalar RSUExampleScenario.node[32].nic.mac1609_4 TooLittleTime 0
scalar RSUExampleScenario.node[32].nic.mac1609_4 TimesIntoBackoff 0
scalar RSUExampleScenario.node[32].nic.mac1609_4 SlotsBackoff 0
scalar RSUExampleScenario.node[32].nic.mac1609_4 NumInternalContention 0
scalar RSUExampleScenario.node[32].nic.mac1609_4 totalBusyTime 0
scalar RSUExampleScenario.node[32].nic.mac1609_4 retriesExceeded:count 0
attr source org_car2x_veins_modules_mac_sigRetriesExceeded
scalar RSUExampleScenario.node[32].nic.mac1609_4 sentAcks:count 0
attr source org_car2x_veins_modules_mac_sigSentAck
scalar RSUExampleScenario.node[32].nic.mac1609_4 sentPackets:count 0
attr source org_car2x_veins_modules_mac_sigSentPacket
scalar RSUExampleScenario.node[32].nic.mac1609_4 collisions:count 0
attr source org_car2x_veins_modules_mac_sigCollision
scalar RSUExampleScenario.node[32].nic.mac1609_4 channelBusy:timeavg 0
attr source org_car2x_veins_modules_mac_sigChannelBusy
scalar RSUExampleScenario.node[32].veinsmobility startTime 64
scalar RSUExampleScenario.node[32].veinsmobility totalTime 20
scalar RSUExampleScenario.node[32].veinsmobility stopTime 85
scalar RSUExampleScenario.node[32].veinsmobility minSpeed 4.0397189360894
scalar RSUExampleScenario.node[32].veinsmobility maxSpeed 23.603905509731
scalar RSUExampleScenario.node[32].veinsmobility totalDistance 272.07245652981
scalar RSUExampleScenario.node[32].veinsmobility totalCO2Emission 140.81019799281
scalar RSUExampleScenario.node[27].appl generatedWSMs 0
scalar RSUExampleScenario.node[27].appl receivedWSMs 0
scalar RSUExampleScenario.node[27].appl generatedBSMs 0
scalar RSUExampleScenario.node[27].appl receivedBSMs 0
scalar RSUExampleScenario.node[27].appl generatedWSAs 0
scalar RSUExampleScenario.node[27].appl receivedWSAs 0
scalar RSUExampleScenario.node[27].nic.phy80211p busyTime 0
scalar RSUExampleScenario.node[27].nic.mac1609_4 ReceivedUnicastPackets 0
scalar RSUExampleScenario.node[27].nic.mac1609_4 ReceivedBroadcasts 0
scalar RSUExampleScenario.node[27].nic.mac1609_4 SentPackets 0
[...]
scalar RSUExampleScenario.node[29].veinsmobility minSpeed 4.7063409520725e-05
scalar RSUExampleScenario.node[29].veinsmobility maxSpeed 19.232969466091
scalar RSUExampleScenario.node[29].veinsmobility totalDistance 205.28010158567
scalar RSUExampleScenario.node[29].veinsmobility totalCO2Emission 103.03680809201
scalar RSUExampleScenario.node[36].appl generatedWSMs 0
scalar RSUExampleScenario.node[36].appl receivedWSMs 0
scalar RSUExampleScenario.node[36].appl generatedBSMs 0
scalar RSUExampleScenario.node[36].appl receivedBSMs 0
scalar RSUExampleScenario.node[36].appl generatedWSAs 0
scalar RSUExampleScenario.node[36].appl receivedWSAs 0
scalar RSUExampleScenario.node[36].nic.phy80211p busyTime 0
scalar RSUExampleScenario.node[36].nic.mac1609_4 ReceivedUnicastPackets 0
scalar RSUExampleScenario.node[36].nic.mac1609_4 ReceivedBroadcasts 0
scalar RSUExampleScenario.node[36].nic.mac1609_4 SentPackets 0
scalar RSUExampleScenario.node[36].nic.mac1609_4 SentAcknowledgements 0
scalar RSUExampleScenario.node[36].nic.mac1609_4 RetriesExceeded 0
scalar RSUExampleScenario.node[36].nic.mac1609_4 SNIRLostPackets 0
scalar RSUExampleScenario.node[36].nic.mac1609_4 RXTXLostPackets 0
scalar RSUExampleScenario.node[36].nic.mac1609_4 TotalLostPackets 0
scalar RSUExampleScenario.node[36].nic.mac1609_4 DroppedPacketsInMac 0
scalar RSUExampleScenario.node[36].nic.mac1609_4 TooLittleTime 0
scalar RSUExampleScenario.node[36].nic.mac1609_4 TimesIntoBackoff 0
scalar RSUExampleScenario.node[36].nic.mac1609_4 SlotsBackoff 0
scalar RSUExampleScenario.node[36].nic.mac1609_4 NumInternalContention 0
scalar RSUExampleScenario.node[36].nic.mac1609_4 totalBusyTime 0
scalar RSUExampleScenario.node[36].nic.mac1609_4 retriesExceeded:count 0
attr source org_car2x_veins_modules_mac_sigRetriesExceeded
scalar RSUExampleScenario.node[36].nic.mac1609_4 sentAcks:count 0
attr source org_car2x_veins_modules_mac_sigSentAck
scalar RSUExampleScenario.node[36].nic.mac1609_4 sentPackets:count 0
attr source org_car2x_veins_modules_mac_sigSentPacket
scalar RSUExampleScenario.node[36].nic.mac1609_4 collisions:count 0
attr source org_car2x_veins_modules_mac_sigCollision
scalar RSUExampleScenario.node[36].nic.mac1609_4 channelBusy:timeavg 0
attr source org_car2x_veins_modules_mac_sigChannelBusy
scalar RSUExampleScenario.node[36].veinsmobility startTime 72
scalar RSUExampleScenario.node[36].veinsmobility totalTime 17
scalar RSUExampleScenario.node[36].veinsmobility stopTime 89
scalar RSUExampleScenario.node[36].veinsmobility minSpeed 3.0433848098515
scalar RSUExampleScenario.node[36].veinsmobility maxSpeed 13.334074394229
scalar RSUExampleScenario.node[36].veinsmobility totalDistance 151.84246175887
scalar RSUExampleScenario.node[36].veinsmobility totalCO2Emission 72.030236157646
scalar RSUExampleScenario.node[37].appl generatedWSMs 0
scalar RSUExampleScenario.node[37].appl receivedWSMs 0
scalar RSUExampleScenario.node[37].appl generatedBSMs 0
scalar RSUExampleScenario.node[37].appl receivedBSMs 0
scalar RSUExampleScenario.node[37].appl generatedWSAs 0
scalar RSUExampleScenario.node[37].appl receivedWSAs 0
scalar RSUExampleScenario.node[37].nic.phy80211p busyTime 0
scalar RSUExampleScenario.node[37].nic.mac1609_4 ReceivedUnicastPackets 0
scalar RSUExampleScenario.node[37].nic.mac1609_4 ReceivedBroadcasts 0
scalar RSUExampleScenario.node[37].nic.mac1609_4 SentPackets 0
scalar RSUExampleScenario.node[37].nic.mac1609_4 SentAcknowledgements 0
scalar RSUExampleScenario.node[37].nic.mac1609_4 RetriesExceeded 0
scalar RSUExampleScenario.node[37].nic.mac1609_4 SNIRLostPackets 0
scalar RSUExampleScenario.node[37].nic.mac1609_4 RXTXLostPackets 0
scalar RSUExampleScenario.node[37].nic.mac1609_4 TotalLostPackets 0
scalar RSUExampleScenario.node[37].nic.mac1609_4 DroppedPacketsInMac 0
scalar RSUExampleScenario.node[37].nic.mac1609_4 TooLittleTime 0
scalar RSUExampleScenario.node[37].nic.mac1609_4 TimesIntoBackoff 0
scalar RSUExampleScenario.node[37].nic.mac1609_4 SlotsBackoff 0
scalar RSUExampleScenario.node[37].nic.mac1609_4 NumInternalContention 0
scalar RSUExampleScenario.node[37].nic.mac1609_4 totalBusyTime 0
scalar RSUExampleScenario.node[37].nic.mac1609_4 retriesExceeded:count 0
attr source org_car2x_veins_modules_mac_sigRetriesExceeded
scalar RSUExampleScenario.node[37].nic.mac1609_4 sentAcks:count 0
attr source org_car2x_veins_modules_mac_sigSentAck
scalar RSUExampleScenario.node[37].nic.mac1609_4 sentPackets:count 0
attr source org_car2x_veins_modules_mac_sigSentPacket
scalar RSUExampleScenario.node[37].nic.mac1609_4 collisions:count 0
attr source org_car2x_veins_modules_mac_sigCollision
scalar RSUExampleScenario.node[37].nic.mac1609_4 channelBusy:timeavg 0
attr source org_car2x_veins_modules_mac_sigChannelBusy
scalar RSUExampleScenario.node[37].veinsmobility startTime 74
scalar RSUExampleScenario.node[37].veinsmobility totalTime 15
scalar RSUExampleScenario.node[37].veinsmobility stopTime 89
scalar RSUExampleScenario.node[37].veinsmobility minSpeed 2.8262097484828
scalar RSUExampleScenario.node[37].veinsmobility maxSpeed 16.400506347744
scalar RSUExampleScenario.node[37].veinsmobility totalDistance 150.08204859646
scalar RSUExampleScenario.node[37].veinsmobility totalCO2Emission 59.764739421027
scalar RSUExampleScenario.node[38].appl generatedWSMs 0
scalar RSUExampleScenario.node[38].appl receivedWSMs 0
scalar RSUExampleScenario.node[38].appl generatedBSMs 0
scalar RSUExampleScenario.node[38].appl receivedBSMs 0
scalar RSUExampleScenario.node[38].appl generatedWSAs 0
scalar RSUExampleScenario.node[38].appl receivedWSAs 0
scalar RSUExampleScenario.node[38].nic.phy80211p busyTime 0
scalar RSUExampleScenario.node[38].nic.mac1609_4 ReceivedUnicastPackets 0
scalar RSUExampleScenario.node[38].nic.mac1609_4 ReceivedBroadcasts 0
scalar RSUExampleScenario.node[38].nic.mac1609_4 SentPackets 0
scalar RSUExampleScenario.node[38].nic.mac1609_4 SentAcknowledgements 0
scalar RSUExampleScenario.node[38].nic.mac1609_4 RetriesExceeded 0
scalar RSUExampleScenario.node[38].nic.mac1609_4 SNIRLostPackets 0
scalar RSUExampleScenario.node[38].nic.mac1609_4 RXTXLostPackets 0
scalar RSUExampleScenario.node[38].nic.mac1609_4 TotalLostPackets 0
scalar RSUExampleScenario.node[38].nic.mac1609_4 DroppedPacketsInMac 0
scalar RSUExampleScenario.node[38].nic.mac1609_4 TooLittleTime 0
scalar RSUExampleScenario.node[38].nic.mac1609_4 TimesIntoBackoff 0
scalar RSUExampleScenario.node[38].nic.mac1609_4 SlotsBackoff 0
scalar RSUExampleScenario.node[38].nic.mac1609_4 NumInternalContention 0
scalar RSUExampleScenario.node[38].nic.mac1609_4 totalBusyTime 0
scalar RSUExampleScenario.node[38].nic.mac1609_4 retriesExceeded:count 0
attr source org_car2x_veins_modules_mac_sigRetriesExceeded
scalar RSUExampleScenario.node[38].nic.mac1609_4 sentAcks:count 0
attr source org_car2x_veins_modules_mac_sigSentAck
scalar RSUExampleScenario.node[38].nic.mac1609_4 sentPackets:count 0
attr source org_car2x_veins_modules_mac_sigSentPacket
scalar RSUExampleScenario.node[38].nic.mac1609_4 collisions:count 0
attr source org_car2x_veins_modules_mac_sigCollision
scalar RSUExampleScenario.node[38].nic.mac1609_4 channelBusy:timeavg 0
attr source org_car2x_veins_modules_mac_sigChannelBusy
scalar RSUExampleScenario.node[38].veinsmobility startTime 75
scalar RSUExampleScenario.node[38].veinsmobility totalTime 14
scalar RSUExampleScenario.node[38].veinsmobility stopTime 89
scalar RSUExampleScenario.node[38].veinsmobility minSpeed 1.1164937246107
scalar RSUExampleScenario.node[38].veinsmobility maxSpeed 11.647376126667
scalar RSUExampleScenario.node[38].veinsmobility totalDistance 96.162290622223
scalar RSUExampleScenario.node[38].veinsmobility totalCO2Emission 52.359999116246
scalar RSUExampleScenario.node[39].appl generatedWSMs 0
scalar RSUExampleScenario.node[39].appl receivedWSMs 0
scalar RSUExampleScenario.node[39].appl generatedBSMs 0
scalar RSUExampleScenario.node[39].appl receivedBSMs 0
scalar RSUExampleScenario.node[39].appl generatedWSAs 0
scalar RSUExampleScenario.node[39].appl receivedWSAs 0
scalar RSUExampleScenario.node[39].nic.phy80211p busyTime 0
scalar RSUExampleScenario.node[39].nic.mac1609_4 ReceivedUnicastPackets 0
scalar RSUExampleScenario.node[39].nic.mac1609_4 ReceivedBroadcasts 0
scalar RSUExampleScenario.node[39].nic.mac1609_4 SentPackets 0
scalar RSUExampleScenario.node[39].nic.mac1609_4 SentAcknowledgements 0
scalar RSUExampleScenario.node[39].nic.mac1609_4 RetriesExceeded 0
scalar RSUExampleScenario.node[39].nic.mac1609_4 SNIRLostPackets 0
scalar RSUExampleScenario.node[39].nic.mac1609_4 RXTXLostPackets 0
scalar RSUExampleScenario.node[39].nic.mac1609_4 TotalLostPackets 0
scalar RSUExampleScenario.node[39].nic.mac1609_4 DroppedPacketsInMac 0
scalar RSUExampleScenario.node[39].nic.mac1609_4 TooLittleTime 0
scalar RSUExampleScenario.node[39].nic.mac1609_4 TimesIntoBackoff 0
scalar RSUExampleScenario.node[39].nic.mac1609_4 SlotsBackoff 0
scalar RSUExampleScenario.node[39].nic.mac1609_4 NumInternalContention 0
scalar RSUExampleScenario.node[39].nic.mac1609_4 totalBusyTime 0
scalar RSUExampleScenario.node[39].nic.mac1609_4 retriesExceeded:count 0
attr source org_car2x_veins_modules_mac_sigRetriesExceeded
scalar RSUExampleScenario.node[39].nic.mac1609_4 sentAcks:count 0
attr source org_car2x_veins_modules_mac_sigSentAck
scalar RSUExampleScenario.node[39].nic.mac1609_4 sentPackets:count 0
attr source org_car2x_veins_modules_mac_sigSentPacket
scalar RSUExampleScenario.node[39].nic.mac1609_4 collisions:count 0
attr source org_car2x_veins_modules_mac_sigCollision
scalar RSUExampleScenario.node[39].nic.mac1609_4 channelBusy:timeavg 0
attr source org_car2x_veins_modules_mac_sigChannelBusy
scalar RSUExampleScenario.node[39].veinsmobility startTime 77
scalar RSUExampleScenario.node[39].veinsmobility totalTime 12
scalar RSUExampleScenario.node[39].veinsmobility stopTime 89
scalar RSUExampleScenario.node[39].veinsmobility minSpeed 3.7653753825567
scalar RSUExampleScenario.node[39].veinsmobility maxSpeed 25.81154389097
scalar RSUExampleScenario.node[39].veinsmobility totalDistance 166.54847548877
scalar RSUExampleScenario.node[39].veinsmobility totalCO2Emission 110.3767215254
scalar RSUExampleScenario.node[40].appl generatedWSMs 0
scalar RSUExampleScenario.node[40].appl receivedWSMs 0
scalar RSUExampleScenario.node[40].appl generatedBSMs 0
scalar RSUExampleScenario.node[40].appl receivedBSMs 0
scalar RSUExampleScenario.node[40].appl generatedWSAs 0
scalar RSUExampleScenario.node[40].appl receivedWSAs 0
scalar RSUExampleScenario.node[40].nic.phy80211p busyTime 0
scalar RSUExampleScenario.node[40].nic.mac1609_4 ReceivedUnicastPackets 0
scalar RSUExampleScenario.node[40].nic.mac1609_4 ReceivedBroadcasts 0
scalar RSUExampleScenario.node[40].nic.mac1609_4 SentPackets 0
scalar RSUExampleScenario.node[40].nic.mac1609_4 SentAcknowledgements 0
scalar RSUExampleScenario.node[40].nic.mac1609_4 RetriesExceeded 0
scalar RSUExampleScenario.node[40].nic.mac1609_4 SNIRLostPackets 0
scalar RSUExampleScenario.node[40].nic.mac1609_4 RXTXLostPackets 0
scalar RSUExampleScenario.node[40].nic.mac1609_4 TotalLostPackets 0
scalar RSUExampleScenario.node[40].nic.mac1609_4 DroppedPacketsInMac 0
scalar RSUExampleScenario.node[40].nic.mac1609_4 TooLittleTime 0
scalar RSUExampleScenario.node[40].nic.mac1609_4 TimesIntoBackoff 0
scalar RSUExampleScenario.node[40].nic.mac1609_4 SlotsBackoff 0
scalar RSUExampleScenario.node[40].nic.mac1609_4 NumInternalContention 0
scalar RSUExampleScenario.node[40].nic.mac1609_4 totalBusyTime 0
scalar RSUExampleScenario.node[40].nic.mac1609_4 retriesExceeded:count 0
attr source org_car2x_veins_modules_mac_sigRetriesExceeded
scalar RSUExampleScenario.node[40].nic.mac1609_4 sentAcks:count 0
attr source org_car2x_veins_modules_mac_sigSentAck
scalar RSUExampleScenario.node[40].nic.mac1609_4 sentPackets:count 0
attr source org_car2x_veins_modules_mac_sigSentPacket
scalar RSUExampleScenario.node[40].nic.mac1609_4 collisions:count 0
attr source org_car2x_veins_modules_mac_sigCollision
scalar RSUExampleScenario.node[40].nic.mac1609_4 channelBusy:timeavg 0
attr source org_car2x_veins_modules_mac_sigChannelBusy
scalar RSUExampleScenario.node[40].veinsmobility startTime 79
scalar RSUExampleScenario.node[40].veinsmobility totalTime 10
scalar RSUExampleScenario.node[40].veinsmobility stopTime 89
scalar RSUExampleScenario.node[40].veinsmobility minSpeed 2.3545583322838
scalar RSUExampleScenario.node[40].veinsmobility maxSpeed 18.768218574744
scalar RSUExampleScenario.node[40].veinsmobility totalDistance 103.44158871578
scalar RSUExampleScenario.node[40].veinsmobility totalCO2Emission 63.132190861644
scalar RSUExampleScenario.node[41].appl generatedWSMs 0
scalar RSUExampleScenario.node[41].appl receivedWSMs 0
scalar RSUExampleScenario.node[41].appl generatedBSMs 0
scalar RSUExampleScenario.node[41].appl receivedBSMs 0
scalar RSUExampleScenario.node[41].appl generatedWSAs 0
scalar RSUExampleScenario.node[41].appl receivedWSAs 0
scalar RSUExampleScenario.node[41].nic.phy80211p busyTime 0
scalar RSUExampleScenario.node[41].nic.mac1609_4 ReceivedUnicastPackets 0
scalar RSUExampleScenario.node[41].nic.mac1609_4 ReceivedBroadcasts 0
scalar RSUExampleScenario.node[41].nic.mac1609_4 SentPackets 0
scalar RSUExampleScenario.node[41].nic.mac1609_4 SentAcknowledgements 0
scalar RSUExampleScenario.node[41].nic.mac1609_4 RetriesExceeded 0
scalar RSUExampleScenario.node[41].nic.mac1609_4 SNIRLostPackets 0
scalar RSUExampleScenario.node[41].nic.mac1609_4 RXTXLostPackets 0
scalar RSUExampleScenario.node[41].nic.mac1609_4 TotalLostPackets 0
scalar RSUExampleScenario.node[41].nic.mac1609_4 DroppedPacketsInMac 0
scalar RSUExampleScenario.node[41].nic.mac1609_4 TooLittleTime 0
scalar RSUExampleScenario.node[41].nic.mac1609_4 TimesIntoBackoff 0
scalar RSUExampleScenario.node[41].nic.mac1609_4 SlotsBackoff 0
scalar RSUExampleScenario.node[41].nic.mac1609_4 NumInternalContention 0
scalar RSUExampleScenario.node[41].nic.mac1609_4 totalBusyTime 0
scalar RSUExampleScenario.node[41].nic.mac1609_4 retriesExceeded:count 0
attr source org_car2x_veins_modules_mac_sigRetriesExceeded
scalar RSUExampleScenario.node[41].nic.mac1609_4 sentAcks:count 0
attr source org_car2x_veins_modules_mac_sigSentAck
scalar RSUExampleScenario.node[41].nic.mac1609_4 sentPackets:count 0
attr source org_car2x_veins_modules_mac_sigSentPacket
scalar RSUExampleScenario.node[41].nic.mac1609_4 collisions:count 0
attr source org_car2x_veins_modules_mac_sigCollision
scalar RSUExampleScenario.node[41].nic.mac1609_4 channelBusy:timeavg 0
attr source org_car2x_veins_modules_mac_sigChannelBusy
scalar RSUExampleScenario.node[41].veinsmobility startTime 82
scalar RSUExampleScenario.node[41].veinsmobility totalTime 7
scalar RSUExampleScenario.node[41].veinsmobility stopTime 89
scalar RSUExampleScenario.node[41].veinsmobility minSpeed 3.0364857330425
scalar RSUExampleScenario.node[41].veinsmobility maxSpeed 14.536745383758
scalar RSUExampleScenario.node[41].veinsmobility totalDistance 55.090779448333
scalar RSUExampleScenario.node[41].veinsmobility totalCO2Emission 37.151398257848
scalar RSUExampleScenario.node[42].appl generatedWSMs 0
scalar RSUExampleScenario.node[42].appl receivedWSMs 0
scalar RSUExampleScenario.node[42].appl generatedBSMs 0
scalar RSUExampleScenario.node[42].appl receivedBSMs 0
scalar RSUExampleScenario.node[42].appl generatedWSAs 0
scalar RSUExampleScenario.node[42].appl receivedWSAs 0
scalar RSUExampleScenario.node[42].nic.phy80211p busyTime 0
scalar RSUExampleScenario.node[42].nic.mac1609_4 ReceivedUnicastPackets 0
scalar RSUExampleScenario.node[42].nic.mac1609_4 ReceivedBroadcasts 0
scalar RSUExampleScenario.node[42].nic.mac1609_4 SentPackets 0
scalar RSUExampleScenario.node[42].nic.mac1609_4 SentAcknowledgements 0
scalar RSUExampleScenario.node[42].nic.mac1609_4 RetriesExceeded 0
scalar RSUExampleScenario.node[42].nic.mac1609_4 SNIRLostPackets 0
scalar RSUExampleScenario.node[42].nic.mac1609_4 RXTXLostPackets 0
scalar RSUExampleScenario.node[42].nic.mac1609_4 TotalLostPackets 0
scalar RSUExampleScenario.node[42].nic.mac1609_4 DroppedPacketsInMac 0
scalar RSUExampleScenario.node[42].nic.mac1609_4 TooLittleTime 0
scalar RSUExampleScenario.node[42].nic.mac1609_4 TimesIntoBackoff 0
scalar RSUExampleScenario.node[42].nic.mac1609_4 SlotsBackoff 0
scalar RSUExampleScenario.node[42].nic.mac1609_4 NumInternalContention 0
scalar RSUExampleScenario.node[42].nic.mac1609_4 totalBusyTime 0
scalar RSUExampleScenario.node[42].nic.mac1609_4 retriesExceeded:count 0
attr source org_car2x_veins_modules_mac_sigRetriesExceeded
scalar RSUExampleScenario.node[42].nic.mac1609_4 sentAcks:count 0
attr source org_car2x_veins_modules_mac_sigSentAck
scalar RSUExampleScenario.node[42].nic.mac1609_4 sentPackets:count 0
attr source org_car2x_veins_modules_mac_sigSentPacket
scalar RSUExampleScenario.node[42].nic.mac1609_4 collisions:count 0
attr source org_car2x_veins_modules_mac_sigCollision
scalar RSUExampleScenario.node[42].nic.mac1609_4 channelBusy:timeavg 0
attr source org_car2x_veins_modules_mac_sigChannelBusy
scalar RSUExampleScenario.node[42].veinsmobility startTime 85
scalar RSUExampleScenario.node[42].veinsmobility totalTime 4
scalar RSUExampleScenario.node[42].veinsmobility stopTime 89
scalar RSUExampleScenario.node[42].veinsmobility minSpeed 3.5343954183276
scalar RSUExampleScenario.node[42].veinsmobility maxSpeed 9.2613085000355
scalar RSUExampleScenario.node[42].veinsmobility totalDistance 22.416337621103
scalar RSUExampleScenario.node[42].veinsmobility totalCO2Emission 14.676974482315
scalar RSUExampleScenario.node[43].appl generatedWSMs 0
scalar RSUExampleScenario.node[43].appl receivedWSMs 0
scalar RSUExampleScenario.node[43].appl generatedBSMs 0
scalar RSUExampleScenario.node[43].appl receivedBSMs 0
scalar RSUExampleScenario.node[43].appl generatedWSAs 0
scalar RSUExampleScenario.node[43].appl receivedWSAs 0
scalar RSUExampleScenario.node[43].nic.phy80211p busyTime 0
scalar RSUExampleScenario.node[43].nic.mac1609_4 ReceivedUnicastPackets 0
scalar RSUExampleScenario.node[43].nic.mac1609_4 ReceivedBroadcasts 0
scalar RSUExampleScenario.node[43].nic.mac1609_4 SentPackets 0
scalar RSUExampleScenario.node[43].nic.mac1609_4 SentAcknowledgements 0
scalar RSUExampleScenario.node[43].nic.mac1609_4 RetriesExceeded 0
scalar RSUExampleScenario.node[43].nic.mac1609_4 SNIRLostPackets 0
scalar RSUExampleScenario.node[43].nic.mac1609_4 RXTXLostPackets 0
scalar RSUExampleScenario.node[43].nic.mac1609_4 TotalLostPackets 0
scalar RSUExampleScenario.node[43].nic.mac1609_4 DroppedPacketsInMac 0
scalar RSUExampleScenario.node[43].nic.mac1609_4 TooLittleTime 0
scalar RSUExampleScenario.node[43].nic.mac1609_4 TimesIntoBackoff 0
scalar RSUExampleScenario.node[43].nic.mac1609_4 SlotsBackoff 0
scalar RSUExampleScenario.node[43].nic.mac1609_4 NumInternalContention 0
scalar RSUExampleScenario.node[43].nic.mac1609_4 totalBusyTime 0
scalar RSUExampleScenario.node[43].nic.mac1609_4 retriesExceeded:count 0
attr source org_car2x_veins_modules_mac_sigRetriesExceeded
scalar RSUExampleScenario.node[43].nic.mac1609_4 sentAcks:count 0
attr source org_car2x_veins_modules_mac_sigSentAck
scalar RSUExampleScenario.node[43].nic.mac1609_4 sentPackets:count 0
attr source org_car2x_veins_modules_mac_sigSentPacket
scalar RSUExampleScenario.node[43].nic.mac1609_4 collisions:count 0
attr source org_car2x_veins_modules_mac_sigCollision
scalar RSUExampleScenario.node[43].nic.mac1609_4 channelBusy:timeavg 0
attr source org_car2x_veins_modules_mac_sigChannelBusy
scalar RSUExampleScenario.node[43].veinsmobility startTime 87
scalar RSUExampleScenario.node[43].veinsmobility totalTime 2
scalar RSUExampleScenario.node[43].veinsmobility stopTime 89
scalar RSUExampleScenario.node[43].veinsmobility minSpeed 2.327012674638
scalar RSUExampleScenario.node[43].veinsmobility maxSpeed 4.4302636853756
scalar RSUExampleScenario.node[43].veinsmobility totalDistance 4.960486975125
scalar RSUExampleScenario.node[43].veinsmobility totalCO2Emission 3.5773761521822

