version 2
run Default-0-20220116-22:09:11-42492
attr configname Default
attr datetime 20220116-22:09:11
attr experiment Default
attr inifile omnetpp.ini
attr iterationvars ""
attr iterationvarsf ""
attr measurement ""
attr network RSUExampleScenario
attr processid 42492
attr repetition 0
attr replication #0
attr resultdir results
attr runnumber 0
attr seedset 0
param *.playgroundSizeX 2500m
param *.playgroundSizeY 2500m
param *.playgroundSizeZ 50m
param *.annotations.draw true
param *.obstacles.obstacles "xmldoc(\"config.xml\", \"//AnalogueModel[@type='SimpleObstacleShadowing']/obstacles\")"
param *.manager.updateInterval 1s
param *.manager.host "\"localhost\""
param *.manager.port 9999
param *.manager.autoShutdown true
param *.manager.launchConfig "xmldoc(\"highway.launchd.xml\")"
param *.rsu[0].mobility.x 2000
param *.rsu[0].mobility.y 2000
param *.rsu[0].mobility.z 3
param *.rsu[*].applType "\"TraCIDemoRSU11p\""
param *.rsu[*].appl.headerLength "80 bit"
param *.rsu[*].appl.sendBeacons false
param *.rsu[*].appl.dataOnSch false
param *.rsu[*].appl.beaconInterval 1s
param *.rsu[*].appl.beaconUserPriority 7
param *.rsu[*].appl.dataUserPriority 5
param *.rsu[*].nic.phy80211p.antennaOffsetZ "0 m"
param *.connectionManager.sendDirect true
param *.connectionManager.maxInterfDist 2600m
param *.connectionManager.drawMaxIntfDist false
param *.**.nic.mac1609_4.useServiceChannel false
param *.**.nic.mac1609_4.txPower 20mW
param *.**.nic.mac1609_4.bitrate 6Mbps
param *.**.nic.phy80211p.minPowerLevel -110dBm
param *.**.nic.phy80211p.useNoiseFloor true
param *.**.nic.phy80211p.noiseFloor -98dBm
param *.**.nic.phy80211p.decider "xmldoc(\"config.xml\")"
param *.**.nic.phy80211p.analogueModels "xmldoc(\"config.xml\")"
param *.**.nic.phy80211p.usePropagationDelay true
param *.**.nic.phy80211p.antenna "xmldoc(\"antenna.xml\", \"/root/Antenna[@id='monopole']\")"
param *.node[*].nic.phy80211p.antennaOffsetY "0 m"
param *.node[*].nic.phy80211p.antennaOffsetZ "1.895 m"
param *.node[*].applType "\"TraCIDemo11p\""
param *.node[*].appl.headerLength "80 bit"
param *.node[*].appl.sendBeacons false
param *.node[*].appl.dataOnSch false
param *.node[*].appl.beaconInterval 1s
param *.node[*].veinsmobility.x 0
param *.node[*].veinsmobility.y 0
param *.node[*].veinsmobility.z 0
param *.node[*].veinsmobility.setHostSpeed false
param *.node[*0].veinsmobility.accidentCount 1
param *.node[*0].veinsmobility.accidentStart 73s
param *.node[*0].veinsmobility.accidentDuration 50s

vector 0 RSUExampleScenario.node[0].veinsmobility posx ETV
vector 1 RSUExampleScenario.node[0].veinsmobility posy ETV
vector 2 RSUExampleScenario.node[1].veinsmobility posx ETV
vector 3 RSUExampleScenario.node[1].veinsmobility posy ETV
vector 4 RSUExampleScenario.node[0].veinsmobility speed ETV
vector 5 RSUExampleScenario.node[1].veinsmobility speed ETV
vector 6 RSUExampleScenario.node[0].veinsmobility acceleration ETV
vector 7 RSUExampleScenario.node[0].veinsmobility co2emission ETV
vector 8 RSUExampleScenario.node[1].veinsmobility acceleration ETV
vector 9 RSUExampleScenario.node[1].veinsmobility co2emission ETV
vector 10 RSUExampleScenario.node[2].veinsmobility posx ETV
vector 11 RSUExampleScenario.node[2].veinsmobility posy ETV
vector 12 RSUExampleScenario.node[3].veinsmobility posx ETV
vector 13 RSUExampleScenario.node[3].veinsmobility posy ETV
vector 14 RSUExampleScenario.node[2].veinsmobility speed ETV
vector 15 RSUExampleScenario.node[3].veinsmobility speed ETV
vector 16 RSUExampleScenario.node[2].veinsmobility acceleration ETV
vector 17 RSUExampleScenario.node[2].veinsmobility co2emission ETV
vector 18 RSUExampleScenario.node[3].veinsmobility acceleration ETV
vector 19 RSUExampleScenario.node[3].veinsmobility co2emission ETV
vector 20 RSUExampleScenario.node[4].veinsmobility posx ETV
vector 21 RSUExampleScenario.node[4].veinsmobility posy ETV
vector 22 RSUExampleScenario.node[4].veinsmobility speed ETV
vector 23 RSUExampleScenario.node[5].veinsmobility posx ETV
vector 24 RSUExampleScenario.node[5].veinsmobility posy ETV
vector 25 RSUExampleScenario.node[6].veinsmobility posx ETV
vector 26 RSUExampleScenario.node[6].veinsmobility posy ETV
vector 27 RSUExampleScenario.node[4].veinsmobility acceleration ETV
vector 28 RSUExampleScenario.node[4].veinsmobility co2emission ETV
vector 29 RSUExampleScenario.node[5].veinsmobility speed ETV
vector 30 RSUExampleScenario.node[6].veinsmobility speed ETV
vector 31 RSUExampleScenario.node[5].veinsmobility acceleration ETV
vector 32 RSUExampleScenario.node[5].veinsmobility co2emission ETV
vector 33 RSUExampleScenario.node[6].veinsmobility acceleration ETV
vector 34 RSUExampleScenario.node[6].veinsmobility co2emission ETV
vector 35 RSUExampleScenario.node[7].veinsmobility posx ETV
vector 36 RSUExampleScenario.node[7].veinsmobility posy ETV
vector 37 RSUExampleScenario.node[8].veinsmobility posx ETV
vector 38 RSUExampleScenario.node[8].veinsmobility posy ETV
vector 39 RSUExampleScenario.node[7].veinsmobility speed ETV
vector 40 RSUExampleScenario.node[7].veinsmobility acceleration ETV
vector 41 RSUExampleScenario.node[7].veinsmobility co2emission ETV
vector 42 RSUExampleScenario.node[8].veinsmobility speed ETV
vector 43 RSUExampleScenario.node[8].veinsmobility acceleration ETV
vector 44 RSUExampleScenario.node[8].veinsmobility co2emission ETV
vector 45 RSUExampleScenario.node[9].veinsmobility posx ETV
vector 46 RSUExampleScenario.node[9].veinsmobility posy ETV
vector 47 RSUExampleScenario.node[10].veinsmobility posx ETV
vector 48 RSUExampleScenario.node[10].veinsmobility posy ETV
vector 49 RSUExampleScenario.node[9].veinsmobility speed ETV
vector 50 RSUExampleScenario.node[10].veinsmobility speed ETV
7	4	3	3.4825779662677
7	5	4	3.8138698498027
7	6	5	4.1672147987734
7	7	6	7.6865107485287
7	8	7	6.4860688876354
7	9	8	9.1585203291345
7	10	9	7.4220228709062
7	11	10	13.135170274909
7	12	11	10.151996811834
7	13	12	14.555971145453
7	14	13	18.524188054644
7	15	14	16.303107022069
7	16	15	16.371188873008
7	17	16	23.449404581482
7	18	17	24.03837502546
6	4	3	2.0199117310578
6	5	4	1.6379354011733
6	6	5	1.4645966956159
6	7	6	2.4876354420092
6	8	7	1.6593176549533
6	9	8	2.1443782452494
6	10	9	1.4290706864558
6	11	10	2.4927182673244
6	12	11	1.5972831639228
6	13	12	2.211610493972
6	14	13	2.5730224694125
6	15	14	1.9570330932038
6	16	15	1.7762572988868
6	17	16	2.5007992214756
6	18	17	2.304459202569
4	3	2	2.3995883058989
4	4	3	4.4195000369567
4	5	4	6.0574354381301
4	6	5	7.522032133746
4	7	6	10.009667575755
4	8	7	11.668985230708
4	9	8	13.813363475958
4	10	9	15.242434162414
4	11	10	17.735152429738
4	12	11	19.332435593661
4	13	12	21.544046087633
4	14	13	24.117068557045
4	15	14	26.074101650249
4	16	15	27.850358949136
4	17	16	30.351158170612
4	18	17	32.655617373181
1	2	1	29.8
1	3	2	29.8
1	4	3	29.8
1	5	4	29.8
1	6	5	29.8
1	7	6	29.8
1	8	7	29.8
1	9	8	29.8
1	10	9	29.8
1	11	10	29.8
1	12	11	29.8
1	13	12	29.8
1	14	13	29.8
1	15	14	29.8
1	16	15	29.8
1	17	16	29.8
1	18	17	29.8
0	2	1	30.1
0	3	2	32.499588305899
0	4	3	36.919088342856
0	5	4	42.976523780986
0	6	5	50.498555914732
0	7	6	60.508223490487
0	8	7	72.177208721195
0	9	8	85.990572197153
0	10	9	101.23300635957
0	11	10	118.95815878931
0	12	11	138.29059438297
0	13	12	159.8346404706
0	14	13	183.95170902764
0	15	14	210.02581067789
0	16	15	237.87616962703
0	17	16	268.22732779764
0	18	17	300.88294517082
vector 51 RSUExampleScenario.node[9].veinsmobility acceleration ETV
vector 52 RSUExampleScenario.node[9].veinsmobility co2emission ETV
vector 53 RSUExampleScenario.node[10].veinsmobility acceleration ETV
vector 54 RSUExampleScenario.node[10].veinsmobility co2emission ETV
vector 55 RSUExampleScenario.node[11].veinsmobility posx ETV
vector 56 RSUExampleScenario.node[11].veinsmobility posy ETV
vector 57 RSUExampleScenario.node[12].veinsmobility posx ETV
vector 58 RSUExampleScenario.node[12].veinsmobility posy ETV
vector 59 RSUExampleScenario.node[11].veinsmobility speed ETV
vector 60 RSUExampleScenario.node[12].veinsmobility speed ETV
vector 61 RSUExampleScenario.node[11].veinsmobility acceleration ETV
vector 62 RSUExampleScenario.node[11].veinsmobility co2emission ETV
vector 63 RSUExampleScenario.node[12].veinsmobility acceleration ETV
vector 64 RSUExampleScenario.node[12].veinsmobility co2emission ETV
vector 65 RSUExampleScenario.node[13].veinsmobility posx ETV
vector 66 RSUExampleScenario.node[13].veinsmobility posy ETV
vector 67 RSUExampleScenario.node[14].veinsmobility posx ETV
vector 68 RSUExampleScenario.node[14].veinsmobility posy ETV
vector 69 RSUExampleScenario.node[13].veinsmobility speed ETV
28	10	9	4.5188633059892
28	11	10	4.1669350738048
28	12	11	6.4503996215291
28	13	12	4.9958722724294
28	14	13	6.0779083731325
28	15	14	11.100256987707
28	16	15	12.118559468279
28	17	16	11.543293888167
28	18	17	13.097684588077
28	19	18	12.030939131559
28	20	19	12.302226868102
28	21	20	16.153284991393
28	22	21	16.738631272392
28	23	22	20.797204703738
28	24	23	21.307300954429
27	10	9	2.5565521409502
27	11	10	1.656259588548
27	12	11	2.2310231477022
27	13	12	1.3212586977519
27	14	13	1.4914437978296
27	15	14	2.5970629891846
27	16	15	2.4076339651598
27	17	16	1.9690093594836
27	18	17	2.024080570112
27	19	18	1.6265549525851
27	20	19	1.5185152296908
27	21	20	1.9519408820895
27	22	21	1.8416817353806
27	23	22	2.1853361040819
27	24	23	2.0300680076936
22	9	8	2.5558465809328
22	10	9	5.1123987218831
22	11	10	6.7686583104311
22	12	11	8.9996814581333
22	13	12	10.320940155885
22	14	13	11.812383953715
22	15	14	14.409446942899
22	16	15	16.817080908059
22	17	16	18.786090267543
22	18	17	20.810170837655
22	19	18	22.43672579024
22	20	19	23.955241019931
22	21	20	25.90718190202
22	22	21	27.748863637401
22	23	22	29.934199741483
22	24	23	31.964267749176
21	8	7	29.8
21	9	8	29.8
21	10	9	29.8
21	11	10	29.8
21	12	11	29.8
21	13	12	29.8
21	14	13	29.8
21	15	14	29.8
21	16	15	29.8
21	17	16	29.8
21	18	17	29.8
21	19	18	29.8
21	20	19	29.8
21	21	20	29.8
21	22	21	29.8
21	23	22	29.8
21	24	23	29.8
20	8	7	30.1
20	9	8	32.655846580933
20	10	9	37.768245302816
20	11	10	44.536903613247
20	12	11	53.53658507138
20	13	12	63.857525227265
20	14	13	75.66990918098
20	15	14	90.07935612388
20	16	15	106.89643703194
20	17	16	125.67252729948
20	18	17	146.48269813714
20	19	18	168.91942392738
20	20	19	192.87466494731
20	21	20	218.78184684933
20	22	21	246.53071048673
20	23	22	276.46491022821
20	24	23	308.42917797739
vector 70 RSUExampleScenario.node[13].veinsmobility acceleration ETV
vector 71 RSUExampleScenario.node[13].veinsmobility co2emission ETV
vector 72 RSUExampleScenario.node[14].veinsmobility speed ETV
vector 73 RSUExampleScenario.node[15].veinsmobility posx ETV
vector 74 RSUExampleScenario.node[15].veinsmobility posy ETV
vector 75 RSUExampleScenario.node[14].veinsmobility acceleration ETV
vector 76 RSUExampleScenario.node[14].veinsmobility co2emission ETV
19	7	6	3.230309579731
19	8	7	5.659262908904
19	9	8	4.3142377071955
19	10	9	7.2490796442042
19	11	10	5.6550358116468
19	12	11	9.0766531766091
19	13	12	9.0535221148273
19	14	13	10.850149565668
19	15	14	15.445652078318
19	16	15	14.662564951679
19	17	16	10.118225293647
19	18	17	0.973
19	19	18	0.973
19	20	19	0.973
19	21	20	0.973
19	22	21	6.6671764370472
19	23	22	5.902918192299
19	24	23	7.2246763539476
19	25	24	8.6283566149898
19	26	25	8.3083326672753
18	7	6	1.9061387947062
18	8	7	2.5810525485314
18	9	8	1.4056288831402
18	10	9	2.2159321203595
18	11	10	1.3559658692684
18	12	11	2.1153152003419
18	13	12	1.8120918674395
18	14	13	1.9740107288118
18	15	14	2.5865135943983
18	16	15	2.1262006659992
18	17	16	1.1775195882004
18	18	17	-4.2789535099873
18	19	18	-4.1712010746007
18	20	19	-3.2207954547368
18	21	20	-3.1738035770926
18	22	21	1.9318736586953
18	23	22	1.4015385301784
18	24	23	1.5948854350485
18	25	24	1.7431896411348
18	26	25	1.4684440099867
15	6	5	2.2576904759509
15	7	6	4.1638292706572
15	8	7	6.7448818191886
15	9	8	8.1505107023288
15	10	9	10.366442822688
15	11	10	11.722408691957
15	12	11	13.837723892299
15	13	12	15.649815759738
15	14	13	17.62382648855
15	15	14	20.210340082948
15	16	15	22.336540748947
15	17	16	23.514060337148
15	18	17	19.23510682716
15	19	18	15.06390575256
15	20	19	11.843110297823
15	21	20	8.6693067207303
15	22	21	10.601180379426
15	23	22	12.002718909604
15	24	23	13.597604344652
15	25	24	15.340793985787
15	26	25	16.809237995774
13	5	4	29.8
13	6	5	29.8
13	7	6	29.8
13	8	7	29.8
13	9	8	29.8
13	10	9	29.8
13	11	10	29.8
13	12	11	29.8
13	13	12	29.8
13	14	13	33
13	15	14	33
13	16	15	33
13	17	16	33
13	18	17	33
13	19	18	33
13	20	19	33
13	21	20	36.58900525021
13	22	21	42.207564469462
13	23	22	48.568930333638
13	24	23	55.77557549163
13	25	24	63.906100244023
13	26	25	72.814891126692
12	5	4	30.1
12	6	5	32.357690475951
12	7	6	36.521519746608
12	8	7	43.266401565797
12	9	8	51.416912268125
12	10	9	61.783355090814
12	11	10	73.50576378277
12	12	11	87.343487675069
12	13	12	102.99330343481
12	14	13	120.60712992336
12	15	14	140.8174700063
12	16	15	163.15401075525
12	17	16	186.6680710924
12	18	17	205.90317791956
12	19	18	220.96708367212
12	20	19	232.81019396994
12	21	20	240.51828793695
12	22	21	249.50771716038
12	23	22	259.6856019114
12	24	23	271.2158935855
12	25	24	284.22434894903
12	26	25	298.47799334093
vector 77 RSUExampleScenario.node[16].veinsmobility posx ETV
vector 78 RSUExampleScenario.node[16].veinsmobility posy ETV
vector 79 RSUExampleScenario.node[15].veinsmobility speed ETV
vector 80 RSUExampleScenario.node[15].veinsmobility acceleration ETV
vector 81 RSUExampleScenario.node[15].veinsmobility co2emission ETV
vector 82 RSUExampleScenario.node[16].veinsmobility speed ETV
32	12	11	2.2446040702191
32	13	12	2.5629331246688
32	14	13	3.1587941320482
32	15	14	5.8188460393155
32	16	15	5.9408362295314
32	17	16	6.3865522465226
32	18	17	5.9896122497453
32	19	18	7.5265915707982
32	20	19	8.1206389395681
32	21	20	13.247813921233
32	22	21	14.264177618788
32	23	22	17.592397228243
32	24	23	18.161098679271
32	25	24	14.700596894418
32	26	25	21.702883090077
32	27	26	17.767166190964
32	28	27	22.009262345506
31	12	11	1.7212031427538
31	13	12	1.3725073238602
31	14	13	1.4136995150009
31	15	14	2.3531607563607
31	16	15	1.8823510764632
31	17	16	1.71037741974
31	18	17	1.3549526460934
31	19	18	1.6060714139603
31	20	19	1.5583550004056
31	21	20	2.4488450704608
31	22	21	2.3077643562108
31	23	22	2.5672767461976
31	24	23	2.3425182775361
31	25	24	1.6113100742921
31	26	25	2.3801559150219
31	27	26	1.6594952662708
31	28	27	2.0077396200271
29	11	10	0.72615681002095
29	12	11	2.4473599527747
29	13	12	3.8198672766349
29	14	13	5.2335667916359
29	15	14	7.5867275479966
29	16	15	9.4690786244598
29	17	16	11.1794560442
29	18	17	12.534408690293
29	19	18	14.140480104254
29	20	19	15.698835104659
29	21	20	18.14768017512
29	22	21	20.455444531331
29	23	22	23.022721277528
29	24	23	25.365239555065
29	25	24	26.976549629357
29	26	25	29.356705544379
29	27	26	31.016200810649
29	28	27	33.023940430676
24	10	9	29.8
24	11	10	29.8
24	12	11	29.8
24	13	12	29.8
24	14	13	29.8
24	15	14	29.8
24	16	15	29.8
24	17	16	29.8
24	18	17	29.8
24	19	18	29.8
24	20	19	29.8
24	21	20	29.8
24	22	21	29.8
24	23	22	29.8
24	24	23	29.8
24	25	24	29.8
24	26	25	29.8
24	27	26	29.8
24	28	27	29.8
23	10	9	30.1
23	11	10	30.826156810021
23	12	11	33.273516762796
23	13	12	37.093384039431
23	14	13	42.326950831066
23	15	14	49.913678379063
23	16	15	59.382757003523
23	17	16	70.562213047723
23	18	17	83.096621738016
23	19	18	97.237101842269
23	20	19	112.93593694693
23	21	20	131.07361712205
23	22	21	151.52906165338
23	23	22	174.55178293091
23	24	23	199.91702248597
23	25	24	226.89357211533
23	26	25	256.25027765971
23	27	26	287.26647847036
23	28	27	320.29041890103
vector 83 RSUExampleScenario.node[17].veinsmobility posx ETV
vector 84 RSUExampleScenario.node[17].veinsmobility posy ETV
vector 85 RSUExampleScenario.node[16].veinsmobility acceleration ETV
vector 86 RSUExampleScenario.node[16].veinsmobility co2emission ETV
vector 87 RSUExampleScenario.node[17].veinsmobility speed ETV
44	16	15	2.4191878473898
44	17	16	3.2679366868688
44	18	17	5.7273609955547
44	19	18	5.7690449927429
44	20	19	8.6094314316639
44	21	20	9.7901867839026
44	22	21	8.7407428968911
44	23	22	9.0238411199259
44	24	23	12.153565711159
44	25	24	15.436606424583
44	26	25	18.202613552653
44	27	26	20.756658007303
44	28	27	16.528082339026
44	29	28	22.439327406153
44	30	29	17.147016347133
43	16	15	1.420552432281
43	17	16	1.6014256035443
43	18	17	2.3910682199057
43	19	18	1.8679165196139
43	20	19	2.4242267745314
43	21	20	2.3096329320222
43	22	21	1.7271115578944
43	23	22	1.5889868666884
43	24	23	2.0332066265866
43	25	24	2.3656493975548
43	26	25	2.5112010973739
43	27	26	2.5746821876615
43	28	27	1.7358635865385
43	29	28	2.3114088772098
43	30	29	1.4645417755703
42	15	14	1.9224061651388
42	16	15	3.3429585974198
42	17	16	4.9443842009641
42	18	17	7.3354524208698
42	19	18	9.2033689404838
42	20	19	11.627595715015
42	21	20	13.937228647037
42	22	21	15.664340204932
42	23	22	17.25332707162
42	24	23	19.286533698207
42	25	24	21.652183095762
42	26	25	24.163384193135
42	27	26	26.738066380797
42	28	27	28.473929967335
42	29	28	30.785338844545
42	30	29	32.249880620115
38	14	13	29.8
38	15	14	29.8
38	16	15	29.8
38	17	16	29.8
38	18	17	29.8
38	19	18	29.8
38	20	19	29.8
38	21	20	29.8
38	22	21	26.6
38	23	22	26.6
38	24	23	26.6
38	25	24	26.6
38	26	25	26.6
38	27	26	26.6
38	28	27	26.6
38	29	28	26.6
38	30	29	26.6
37	14	13	30.1
37	15	14	32.022406165139
37	16	15	35.365364762559
37	17	16	40.309748963523
37	18	17	47.645201384393
37	19	18	56.848570324876
37	20	19	68.476166039892
37	21	20	82.413394686929
37	22	21	98.077734891861
37	23	22	115.32577864215
37	24	23	134.60759566169
37	25	24	156.25977875745
37	26	25	180.42316295058
37	27	26	207.16122933138
37	28	27	235.63515929872
37	29	28	266.42049814326
37	30	29	298.67037876338
vector 88 RSUExampleScenario.node[18].veinsmobility posx ETV
vector 89 RSUExampleScenario.node[18].veinsmobility posy ETV
vector 90 RSUExampleScenario.node[17].veinsmobility acceleration ETV
vector 91 RSUExampleScenario.node[17].veinsmobility co2emission ETV
vector 92 RSUExampleScenario.node[18].veinsmobility speed ETV
17	7	6	3.7358829623184
17	8	7	5.2021761119522
17	9	8	5.6568396208155
17	10	9	7.6108587123593
17	11	10	0.973
17	12	11	0.973
17	13	12	0.973
17	14	13	0.973
17	15	14	0.973
17	16	15	1.1117894659972
17	17	16	1.1108265569801
17	18	17	2.4817337251681
17	19	18	3.579799087514
17	20	19	4.5017056877443
17	21	20	7.0420100344048
17	22	21	0.973
17	23	22	7.6289391438879
17	24	23	6.8241816685461
17	25	24	9.9727701158746
17	26	25	11.471733888906
17	27	26	14.223972207831
17	28	27	11.601885647374
17	29	28	11.586143240491
17	30	29	11.225171274267
17	31	30	17.798088688736
17	32	31	17.26325361235
16	7	6	2.1300000195391
16	8	7	2.2419787996681
16	9	8	1.9109997015214
16	10	9	2.2023054129677
16	11	10	-1.4350145016822
16	12	11	-4.1820165149751
16	13	12	-4.5
16	14	13	-0.43711600277452
16	15	14	-0.38141017873551
16	16	15	-0.034291081580327
16	17	16	-0.025165293625572
16	18	17	2.2766115015798
16	19	18	2.1153769300785
16	20	19	1.9844832314178
16	21	20	2.5276067882543
16	22	21	-0.668668700087
16	23	22	2.3158737235237
16	24	23	1.6780295867007
16	25	24	2.2547640341101
16	26	25	2.2573162979912
16	27	26	2.4851582406089
16	28	27	1.7090322415344
16	29	28	1.5384176130407
16	30	29	1.3428612101357
16	31	30	2.1995834029047
16	32	31	1.8999553667847
14	6	5	2.529327815515
14	7	6	4.6593278350541
14	8	7	6.9013066347223
14	9	8	8.8123063362436
14	10	9	11.014611749211
14	11	10	9.5795972475292
14	12	11	5.397580732554
14	13	12	0.89758073255404
14	14	13	0.46046472977953
14	15	14	0.079054551044021
14	16	15	0.044763469463694
14	17	16	0.019598175838122
14	18	17	2.2962096774179
14	19	18	4.4115866074964
14	20	19	6.3960698389142
14	21	20	8.9236766271686
14	22	21	8.2550079270816
14	23	22	10.570881650605
14	24	23	12.248911237306
14	25	24	14.503675271416
14	26	25	16.760991569407
14	27	26	19.246149810016
14	28	27	20.955182051551
14	29	28	22.493599664591
14	30	29	23.836460874727
14	31	30	26.036044277632
14	32	31	27.935999644416
11	5	4	73.656625527261
11	6	5	72.315896066545
11	7	6	69.846110198035
11	8	7	66.187910946103
11	9	8	61.516741535249
11	10	9	55.678188548986
11	11	10	50.600298616027
11	12	11	47.739184504864
11	13	12	47.263400810823
11	14	13	47.019320693944
11	15	14	46.977415977229
11	16	15	46.95368805161
11	17	16	46.943299579399
11	18	17	45.726139848814
11	19	18	43.387675021563
11	20	19	40.050596989343
11	21	20	35.320992005013
11	22	21	33
11	23	22	29.8
11	24	23	29.8
11	25	24	29.8
11	26	25	29.8
11	27	26	29.8
11	28	27	29.8
11	29	28	29.8
11	30	29	29.8
11	31	30	29.8
11	32	31	29.8
10	5	4	50.174761755976
10	6	5	52.319612776537
10	7	6	56.270687841164
10	8	7	62.122944115695
10	9	8	69.595713806857
10	10	9	78.936021973506
10	11	10	87.059448603656
10	12	11	91.63655658933
10	13	12	92.397698319732
10	14	13	92.788168957639
10	15	14	92.855206624108
10	16	15	92.89316571054
10	17	16	92.909784816687
10	18	17	94.856953404255
10	19	18	98.597945765682
10	20	19	103.93591041752
10	21	20	111.50102351522
10	22	21	119.15807068759
10	23	22	129.72895233819
10	24	23	141.9778635755
10	25	24	156.48153884691
10	26	25	173.24253041632
10	27	26	192.48868022634
10	28	27	213.44386227789
10	29	28	235.93746194248
10	30	29	259.77392281721
10	31	30	285.80996709484
10	32	31	313.74596673926
vector 93 RSUExampleScenario.node[19].veinsmobility posx ETV
vector 94 RSUExampleScenario.node[19].veinsmobility posy ETV
vector 95 RSUExampleScenario.node[18].veinsmobility acceleration ETV
vector 96 RSUExampleScenario.node[18].veinsmobility co2emission ETV
9	4	3	2.3887566924949
9	5	4	4.4699831115451
9	6	5	4.6883020042047
9	7	6	7.3984908035623
9	8	7	5.9386968317581
9	9	8	0.973
9	10	9	0.973
9	11	10	0.973
9	12	11	0.973
9	13	12	1.110069421836
9	14	13	1.1100659799765
9	15	14	1.1100056776222
9	16	15	0.973
9	17	16	2.7879637965095
9	18	17	4.0536116631131
9	19	18	5.163448658802
9	20	19	4.4797669187819
9	21	20	7.3475503629499
9	22	21	9.5446282930902
9	23	22	11.951249729089
9	24	23	8.4109392048592
9	25	24	12.173391121657
9	26	25	0.973
9	27	26	0.973
9	28	27	0.973
9	29	28	0.973
9	30	29	8.6319197105131
9	31	30	9.7571586134449
9	32	31	10.479890164851
9	33	32	12.623475947425
8	4	3	1.5423454139149
8	5	4	2.3674352996983
8	6	5	1.8312385037309
8	7	6	2.4557177811861
8	8	7	1.5358046896989
8	9	8	-1.3312630321082
8	10	9	-2.7254854412633
8	11	10	-4.5
8	12	11	-2.6110770917954
8	13	12	-0.059209530462994
8	14	13	-0.00067124540491639
8	15	14	-0.0012539089518559
8	16	15	-0.00011843725179817
8	17	16	2.539281691052
8	18	17	2.3097215975402
8	19	18	2.1753469938878
8	20	19	1.426931242866
8	21	20	2.1889083944727
8	22	21	2.4152555802604
8	23	22	2.5826813858701
8	24	23	1.4596124283038
8	25	24	2.0559393584961
8	26	25	-1.2010696618818
8	27	26	-4.5
8	28	27	-4.5
8	29	28	-0.53725241036154
8	30	29	2.5895389665384
8	31	30	2.4062933571171
8	32	31	2.1973432903178
8	33	32	2.3383285223972
5	3	2	1.4965369990095
5	4	3	3.0388824129244
5	5	4	5.4063177126227
5	6	5	7.2375562163535
5	7	6	9.6932739975397
5	8	7	11.229078687239
5	9	8	9.8978156551303
5	10	9	7.172330213867
5	11	10	2.672330213867
5	12	11	0.061253122071564
5	13	12	0.0020435916085705
5	14	13	0.0013723462036541
5	15	14	0.00011843725179817
5	16	15	0
5	17	16	2.539281691052
5	18	17	4.8490032885922
5	19	18	7.02435028248
5	20	19	8.451281525346
5	21	20	10.640189919819
5	22	21	13.055445500079
5	23	22	15.638126885949
5	24	23	17.097739314253
5	25	24	19.153678672749
5	26	25	17.952609010867
5	27	26	13.452609010867
5	28	27	8.9526090108674
5	29	28	8.4153566005058
5	30	29	11.004895567044
5	31	30	13.411188924161
5	32	31	15.608532214479
5	33	32	17.946860736876
3	2	1	73.656625527261
3	3	2	72.86335103302
3	4	3	71.252520221107
3	5	4	68.386774868986
3	6	5	64.550338649319
3	7	6	59.412191692023
3	8	7	53.45995548115
3	9	8	48.213386426649
3	10	9	44.411524777587
3	11	10	42.994993545646
3	12	11	42.962524893375
3	13	12	42.961441639769
3	14	13	42.960714195516
3	15	14	42.960651415076
3	16	15	42.960651415076
3	17	16	41.667749527502
3	18	17	39.097747152815
3	19	18	35.374797129441
3	20	19	33
3	21	20	33
3	22	21	33
3	23	22	33
3	24	23	33
3	25	24	33
3	26	25	33
3	27	26	33
3	28	27	33.31639656111
3	29	28	37.718787405197
3	30	29	43.551313145927
3	31	30	50.659159298344
3	32	31	58.931583635436
3	33	32	68.443307447391
2	2	1	50.174761755976
2	3	2	51.443813908862
2	4	3	54.020763406964
2	5	4	58.60528028622
2	6	5	64.742673684496
2	7	6	72.962497346212
2	8	7	82.484671868058
2	9	8	90.877945321588
2	10	9	96.960027558874
2	11	10	99.226143540888
2	12	11	99.278085729078
2	13	12	99.279818679437
2	14	13	99.280982418727
2	15	14	99.281082852629
2	16	15	99.281082852629
2	17	16	101.34923734695
2	18	17	105.46001587714
2	19	18	111.41496096816
2	20	19	119.25282639316
2	21	20	129.89301631298
2	22	21	142.94846181306
2	23	22	158.58658869901
2	24	23	175.68432801326
2	25	24	194.83800668601
2	26	25	212.79061569688
2	27	26	226.24322470774
2	28	27	235.15538545036
2	29	28	242.32588599258
2	30	29	251.65765153853
2	31	30	263.02986947285
2	32	31	276.26535746586
2	33	32	291.48366605063
52	19	18	4.1798365931714
52	20	19	3.388083967244
52	21	20	5.8693095875326
52	22	21	6.4397018281012
52	23	22	8.8914834521394
52	24	23	8.167697688754
52	25	24	8.5419680292825
52	26	25	13.049523003468
52	27	26	14.891445057408
52	28	27	12.446730171644
52	29	28	16.844005362066
52	30	29	3.7640276274593
52	31	30	7.4444153975719
52	32	31	19.285843581675
52	33	32	19.41262115274
51	19	18	2.5729472622508
51	20	19	1.3738690925529
51	21	20	2.1971331469715
51	22	21	1.9500713855261
51	23	22	2.3365410596365
51	24	23	1.7818260609405
51	25	24	1.6469362293137
51	26	25	2.3863215662539
51	27	26	2.404508772539
51	28	27	1.7110360453138
51	29	28	2.2228960719297
51	30	29	0.01529107726688
51	31	30	0.59908519172441
51	32	31	2.2569679071428
51	33	32	2.0403260162335
49	18	17	2.007133802399
49	19	18	4.5800810646499
49	20	19	5.9539501572028
49	21	20	8.1510833041742
49	22	21	10.1011546897
49	23	22	12.437695749337
49	24	23	14.219521810277
49	25	24	15.866458039591
49	26	25	18.252779605845
49	27	26	20.657288378384
49	28	27	22.368324423698
49	29	28	24.591220495627
49	30	29	24.606511572894
49	31	30	25.205596764619
49	32	31	27.462564671762
49	33	32	29.502890687995
46	17	16	29.8
46	18	17	29.8
46	19	18	29.8
46	20	19	29.8
46	21	20	29.8
46	22	21	29.8
46	23	22	29.8
46	24	23	29.8
46	25	24	29.8
46	26	25	29.8
46	27	26	29.8
46	28	27	29.8
46	29	28	29.8
46	30	29	29.8
46	31	30	29.8
46	32	31	29.8
46	33	32	29.8
45	17	16	30.1
45	18	17	32.107133802399
45	19	18	36.687214867049
45	20	19	42.641165024252
45	21	20	50.792248328426
45	22	21	60.893403018126
45	23	22	73.331098767463
45	24	23	87.55062057774
45	25	24	103.41707861733
45	26	25	121.65985822318
45	27	26	142.31714660156
45	28	27	164.68547102526
45	29	28	189.27669152089
45	30	29	213.88320309378
45	31	30	239.0887998584
45	32	31	266.55136453016
45	33	32	296.05425521816
vector 97 RSUExampleScenario.node[20].veinsmobility posx ETV
vector 98 RSUExampleScenario.node[20].veinsmobility posy ETV
vector 99 RSUExampleScenario.node[19].veinsmobility speed ETV
vector 100 RSUExampleScenario.node[19].veinsmobility acceleration ETV
vector 101 RSUExampleScenario.node[19].veinsmobility co2emission ETV
vector 102 RSUExampleScenario.node[20].veinsmobility speed ETV
vector 103 RSUExampleScenario.node[21].veinsmobility posx ETV
vector 104 RSUExampleScenario.node[21].veinsmobility posy ETV
vector 105 RSUExampleScenario.node[20].veinsmobility acceleration ETV
vector 106 RSUExampleScenario.node[20].veinsmobility co2emission ETV
41	15	14	3.2502461575288
41	16	15	3.6746957154626
41	17	16	6.3067375914905
41	18	17	2.4131557181936
41	19	18	0.973
41	20	19	0.973
41	21	20	1.2331431586893
41	22	21	2.0811668644143
41	23	22	0.973
41	24	23	4.0742981698359
41	25	24	4.2163138500428
41	26	25	7.3631294146498
41	27	26	3.7788061318929
41	28	27	5.7561464212689
41	29	28	9.3981769715716
41	30	29	7.6064344857117
41	31	30	12.595828504245
41	32	31	11.321732442533
41	33	32	16.926138485703
41	34	33	11.819831709244
41	35	34	16.688347891207
41	36	35	19.687430791509
40	15	14	2.0508921113797
40	16	15	1.6823083593743
40	17	16	2.4484211918665
40	18	17	0.41026916347728
40	19	18	-3.5125212809917
40	20	19	-1.1754168746226
40	21	20	-0.06810179144337
40	22	21	0.70340057017747
40	23	22	-0.5058850107775
40	24	23	1.9009312174749
40	25	24	1.5325881728204
40	26	25	2.419047049596
40	27	26	0.80424717364901
40	28	27	1.3605886530131
40	29	28	2.1631069418276
40	30	29	1.4419385107234
40	31	30	2.3424416411202
40	32	31	1.8037161043379
40	33	32	2.5601983566536
40	34	33	1.4591005797498
40	35	34	2.0548161260318
40	36	35	2.251029318152
39	14	13	1.8838524050778
39	15	14	3.9347445164574
39	16	15	5.6170528758317
39	17	16	8.0654740676982
39	18	17	8.4757432311755
39	19	18	4.9632219501838
39	20	19	3.7878050755613
39	21	20	3.7197032841179
39	22	21	4.4231038542954
39	23	22	3.9172188435179
39	24	23	5.8181500609927
39	25	24	7.3507382338131
39	26	25	9.7697852834091
39	27	26	10.574032457058
39	28	27	11.934621110071
39	29	28	14.097728051899
39	30	29	15.539666562622
39	31	30	17.882108203742
39	32	31	19.68582430808
39	33	32	22.246022664734
39	34	33	23.705123244484
39	35	34	25.759939370516
39	36	35	28.010968688668
36	13	12	73.656625527261
36	14	13	72.658045428772
36	15	14	70.572341922392
36	16	15	67.594891460324
36	17	16	63.319597988726
36	18	17	58.82683173605
36	19	18	56.195959672783
36	20	19	54.188144859257
36	21	20	52.21642899564
36	22	21	49.871859181919
36	23	22	47.795445569038
36	24	23	44.711398833067
36	25	24	40.868172933336
36	26	25	35.69012501623
36	27	26	29.8
36	28	27	29.8
36	29	28	29.8
36	30	29	29.8
36	31	30	29.8
36	32	31	29.8
36	33	32	29.8
36	34	33	29.8
36	35	34	29.8
36	36	35	29.8
35	13	12	50.174761755976
35	14	13	51.772254468796
35	15	14	55.108888312778
35	16	15	59.872107030168
35	17	16	66.711568557971
35	18	17	73.898935259865
35	19	18	78.107710255271
35	20	19	81.319740555247
35	21	20	84.474021046763
35	22	21	88.224779947109
35	23	22	91.546552151861
35	24	23	96.480299774274
35	25	24	102.62817869304
35	26	25	110.91058668441
35	27	26	120.78062613919
35	28	27	132.71524724926
35	29	28	146.81297530116
35	30	29	162.35264186378
35	31	30	180.23475006752
35	32	31	199.9205743756
35	33	32	222.16659704034
35	34	33	245.87172028482
35	35	34	271.63165965534
35	36	35	299.64262834401
vector 107 RSUExampleScenario.node[21].veinsmobility speed ETV
vector 108 RSUExampleScenario.node[22].veinsmobility posx ETV
vector 109 RSUExampleScenario.node[22].veinsmobility posy ETV
vector 110 RSUExampleScenario.node[21].veinsmobility acceleration ETV
vector 111 RSUExampleScenario.node[21].veinsmobility co2emission ETV
34	12	11	3.4655804747355
34	13	12	5.4536144299635
34	14	13	4.8336957420929
34	15	14	5.2941130766794
34	16	15	0.973
34	17	16	0.973
34	18	17	0.973
34	19	18	2.1531837230109
34	20	19	2.3611518419426
34	21	20	2.9093626085913
34	22	21	0.973
34	23	22	4.4074074782623
34	24	23	6.179079038401
34	25	24	2.6281261485385
34	26	25	8.0537772006965
34	27	26	10.365634456909
34	28	27	10.580281173357
34	29	28	11.00528481636
34	30	29	14.581426902719
34	31	30	0.973
34	32	31	0.973
34	33	32	0.973
34	34	33	7.943913393792
34	35	34	8.0047146265028
34	36	35	10.171005420672
34	37	36	11.594875969836
34	38	37	12.738583558486
33	12	11	2.275131290406
33	13	12	2.5577558084624
33	14	13	1.6668942095013
33	15	14	1.5507966732373
33	16	15	-1.2564443647779
33	17	16	-4.071653668093
33	18	17	-4.3286124235866
33	19	18	1.95192140703
33	20	19	1.3436096667733
33	21	20	1.3714500592556
33	22	21	-0.1600501412237
33	23	22	1.9001466153422
33	24	23	2.1987981781596
33	25	24	0.45847120352843
33	26	25	2.2774684745353
33	27	26	2.4907224500552
33	28	27	2.1508517645532
33	29	28	1.9569491316332
33	30	29	2.3831907437881
33	31	30	-2.6103215569863
33	32	31	-4.5
33	33	32	-4.5
33	34	33	2.311407726421
33	35	34	1.9329482747242
33	36	35	2.1847467867425
33	37	36	2.1862302433234
33	38	37	2.1266442938475
30	11	10	1.6640973685076
30	12	11	3.9392286589136
30	13	12	6.496984467376
30	14	13	8.1638786768774
30	15	14	9.7146753501147
30	16	15	8.4582309853368
30	17	16	4.3865773172438
30	18	17	0.057964893657119
30	19	18	2.0098863006871
30	20	19	3.3534959674604
30	21	20	4.7249460267159
30	22	21	4.5648958854922
30	23	22	6.4650425008345
30	24	23	8.6638406789941
30	25	24	9.1223118825225
30	26	25	11.399780357058
30	27	26	13.890502807113
30	28	27	16.041354571666
30	29	28	17.998303703299
30	30	29	20.381494447088
30	31	30	17.771172890101
30	32	31	13.271172890101
30	33	32	8.7711728901012
30	34	33	11.082580616522
30	35	34	13.015528891246
30	36	35	15.200275677989
30	37	36	17.386505921312
30	38	37	19.51315021516
26	10	9	73.656625527261
26	11	10	72.774531733894
26	12	11	70.686451302759
26	13	12	67.242572487291
26	14	13	62.915117347369
26	15	14	57.765626101792
26	16	15	53.282142625265
26	17	16	50.95693455818
26	18	17	50.92620890841
26	19	18	49.86082159108
26	20	19	48.08322249444
26	21	20	45.578654166265
26	22	21	43.158924164785
26	23	22	39.785319146593
26	24	23	35.19342885621
26	25	24	33
26	26	25	33
26	27	26	33
26	28	27	33
26	29	28	33
26	30	29	33
26	31	30	33
26	32	31	33
26	33	32	35.694116561183
26	34	33	41.567814891693
26	35	34	48.465963704186
26	36	35	56.522014633334
26	37	36	65.736753901837
26	38	37	76.078601329584
25	10	9	50.174761755976
25	11	10	51.58590384569
25	12	11	54.926340208849
25	13	12	60.435734317413
25	14	13	67.35864221588
25	15	14	75.596614064095
25	16	15	82.769130512839
25	17	16	86.488915183671
25	18	17	86.538068978824
25	19	18	88.242437490014
25	20	19	91.08617692313
25	21	20	95.092895722226
25	22	21	98.963893201753
25	23	22	104.36022849258
25	24	23	111.70506373655
25	25	24	120.26605696073
25	26	25	131.66583731779
25	27	26	145.5563401249
25	28	27	161.59769469657
25	29	28	179.59599839987
25	30	29	199.97749284696
25	31	30	217.74866573706
25	32	31	231.01983862716
25	33	32	239.08650832603
25	34	33	248.48414806986
25	35	34	259.52086017038
25	36	35	272.41016093627
25	37	36	287.15330828671
25	38	37	303.69977542595
vector 112 RSUExampleScenario.node[22].veinsmobility speed ETV
71	25	24	2.9802131747986
71	26	25	3.3743854192798
71	27	26	6.5468372992267
71	28	27	5.9495286713889
71	29	28	8.9081574150451
71	30	29	8.2002044877914
71	31	30	11.357084786865
71	32	31	8.8858493272641
71	33	32	12.359997775802
71	34	33	15.765147556674
71	35	34	13.056491308654
71	36	35	12.320923354485
71	37	36	17.837125050307
71	38	37	13.932222042697
71	39	38	22.416966475114
70	25	24	1.6865909385495
70	26	25	1.4739054602338
70	27	26	2.5513427064754
70	28	27	1.7880432579434
70	29	28	2.375305156759
70	30	29	1.810456270352
70	31	30	2.2911964192521
70	32	31	1.4827357839793
70	33	32	1.9978159122868
70	34	33	2.3476496917428
70	35	34	1.6575858970871
70	36	35	1.3958321520127
70	37	36	2.053735314752
70	38	37	1.3408971355064
70	39	38	2.2887285570381
69	24	23	2.4124116510618
69	25	24	4.0990025896113
69	26	25	5.5729080498451
69	27	26	8.1242507563205
69	28	27	9.9122940142639
69	29	28	12.287599171023
69	30	29	14.098055441375
69	31	30	16.389251860627
69	32	31	17.871987644606
69	33	32	19.869803556893
69	34	33	22.217453248636
69	35	34	23.875039145723
69	36	35	25.270871297736
69	37	36	27.324606612488
69	38	37	28.665503747994
69	39	38	30.954232305032
66	23	22	29.8
66	24	23	29.8
66	25	24	29.8
66	26	25	29.8
66	27	26	29.8
66	28	27	29.8
66	29	28	26.6
66	30	29	26.6
66	31	30	26.6
66	32	31	26.6
66	33	32	26.6
66	34	33	26.6
66	35	34	26.6
66	36	35	26.6
66	37	36	26.6
66	38	37	26.6
66	39	38	26.6
65	23	22	30.1
65	24	23	32.512411651062
65	25	24	36.611414240673
65	26	25	42.184322290518
65	27	26	50.308573046839
65	28	27	60.220867061103
65	29	28	72.508466232126
65	30	29	86.606521673501
65	31	30	102.99577353413
65	32	31	120.85776117873
65	33	32	140.72756473563
65	34	33	162.94501798426
65	35	34	186.82005712999
65	36	35	212.09092842772
65	37	36	239.41553504021
65	38	37	268.0810387882
65	39	38	299.03527109324
vector 113 RSUExampleScenario.node[23].veinsmobility posx ETV
vector 114 RSUExampleScenario.node[23].veinsmobility posy ETV
vector 115 RSUExampleScenario.node[22].veinsmobility acceleration ETV
vector 116 RSUExampleScenario.node[22].veinsmobility co2emission ETV
vector 117 RSUExampleScenario.node[24].veinsmobility posx ETV
vector 118 RSUExampleScenario.node[24].veinsmobility posy ETV
vector 119 RSUExampleScenario.node[23].veinsmobility speed ETV
64	22	21	3.0513045205924
64	23	22	3.3078474778881
64	24	23	5.4915021067472
64	25	24	7.7624269208744
64	26	25	8.2228137358156
64	27	26	9.5350600322965
64	28	27	6.9539442528469
64	29	28	0.973
64	30	29	9.5353605152428
64	31	30	8.6943035276644
64	32	31	10.380175385254
64	33	32	11.557619963248
64	34	33	0.973
64	35	34	0.973
64	36	35	0.973
64	37	36	0.973
64	38	37	6.7887033368339
64	39	38	9.3776342423964
64	40	39	8.3469310043984
64	41	40	10.136424808235
63	22	21	1.9874012826709
63	23	22	1.5389812113717
63	24	23	2.2235371752409
63	25	24	2.5311630139127
63	26	25	2.1741596880369
63	27	26	2.1649582091952
63	28	27	1.264240474999
63	29	28	-1.181178683729
63	30	29	1.8513363142883
63	31	30	1.4578731924295
63	32	31	1.6449445396895
63	33	32	1.6911603907123
63	34	33	-3.2253688111391
63	35	34	-3.6171457535184
63	36	35	-3.0321501375176
63	37	36	-2.0762761521142
63	38	37	1.8990400796058
63	39	38	2.3123685781145
63	40	39	1.7141478322446
63	41	40	1.9045645880513
60	21	20	1.686178293312
60	22	21	3.6735795759829
60	23	22	5.2125607873546
60	24	23	7.4360979625955
60	25	24	9.9672609765083
60	26	25	12.141420664545
60	27	26	14.30637887374
60	28	27	15.570619348739
60	29	28	14.38944066501
60	30	29	16.240776979299
60	31	30	17.698650171728
60	32	31	19.343594711418
60	33	32	21.03475510213
60	34	33	17.809386290991
60	35	34	14.192240537473
60	36	35	11.160090399955
60	37	36	9.0838142478408
60	38	37	10.982854327447
60	39	38	13.295222905561
60	40	39	15.009370737806
60	41	40	16.913935325857
58	20	19	29.8
58	21	20	29.8
58	22	21	29.8
58	23	22	29.8
58	24	23	29.8
58	25	24	29.8
58	26	25	29.8
58	27	26	29.8
58	28	27	29.8
58	29	28	29.8
58	30	29	33
58	31	30	33
58	32	31	33
58	33	32	33
58	34	33	33
58	35	34	33
58	36	35	33
58	37	36	36.354400817915
58	38	37	42.175244839675
58	39	38	49.221629728383
58	40	39	57.176502234632
58	41	40	66.140782046657
57	20	19	30.1
57	21	20	31.786178293312
57	22	21	35.459757869295
57	23	22	40.672318656649
57	24	23	48.108416619245
57	25	24	58.075677595753
57	26	25	70.217098260298
57	27	26	84.523477134039
57	28	27	100.09409648278
57	29	28	114.48041587955
57	30	29	130.71431412709
57	31	30	148.41296429882
57	32	31	167.75655901023
57	33	32	188.79131411236
57	34	33	206.60070040335
57	35	34	220.79294094083
57	36	35	231.95303134078
57	37	36	240.14293193244
57	38	37	249.45600728011
57	39	38	260.72989009709
57	40	39	273.45731016793
57	41	40	287.79973422446
vector 120 RSUExampleScenario.node[23].veinsmobility acceleration ETV
vector 121 RSUExampleScenario.node[23].veinsmobility co2emission ETV
vector 122 RSUExampleScenario.node[24].veinsmobility speed ETV
62	22	21	3.4061589756653
62	23	22	4.6593106502695
62	24	23	4.876376787323
62	25	24	0.973
62	26	25	2.6178960125674
62	27	26	1.9831429434238
62	28	27	0.973
62	29	28	3.0405093061852
62	30	29	7.0224143990887
62	31	30	2.2927407768181
62	32	31	0.973
62	33	32	5.6103311759773
62	34	33	8.3041589862496
62	35	34	7.4747931613974
62	36	35	7.2832522961349
62	37	36	10.1625363557
62	38	37	14.107926628224
62	39	38	13.753142302381
62	40	39	12.196604898599
62	41	40	15.537736522795
62	42	41	16.652781327483
61	22	21	2.1185643975623
61	23	22	2.1443300047424
61	24	23	1.7346842072671
61	25	24	-0.86690434416617
61	26	25	0.5897422753184
61	27	26	0.23247820308631
61	28	27	-2.5996449525785
61	29	28	1.0411123179989
61	30	29	2.5261194416322
61	31	30	0.30080727320551
61	32	31	-1.0284276619051
61	33	32	1.6617180934176
61	34	33	2.2205611141864
61	35	34	1.6543338359101
61	36	35	1.4068936402211
61	37	36	1.8968547896016
61	38	37	2.4291044056183
61	39	38	2.0622324088821
61	40	39	1.5876525437925
61	41	40	1.9501527519198
61	42	41	1.9139057714958
59	21	20	1.9790479856776
59	22	21	4.0976123832399
59	23	22	6.2419423879823
59	24	23	7.9766265952494
59	25	24	7.1097222510832
59	26	25	7.6994645264016
59	27	26	7.9319427294879
59	28	27	5.3322977769095
59	29	28	6.3734100949084
59	30	29	8.8995295365406
59	31	30	9.2003368097461
59	32	31	8.171909147841
59	33	32	9.8336272412586
59	34	33	12.054188355445
59	35	34	13.708522191355
59	36	35	15.115415831576
59	37	36	17.012270621178
59	38	37	19.441375026796
59	39	38	21.503607435678
59	40	39	23.091259979471
59	41	40	25.041412731391
59	42	41	26.955318502886
56	20	19	73.656625527261
56	21	20	72.607584781221
56	22	21	70.435549346706
56	23	22	67.126861560044
56	24	23	62.89866377256
56	25	24	59.129988940827
56	26	25	55.048707400742
56	27	26	50.844195343071
56	28	27	48.017685991868
56	29	28	44.639310667383
56	30	29	39.975224719889
56	31	30	35.098988091097
56	32	31	29.8
56	33	32	29.8
56	34	33	29.8
56	35	34	29.8
56	36	35	29.8
56	37	36	29.8
56	38	37	29.8
56	39	38	29.8
56	40	39	29.8
56	41	40	29.8
56	42	41	29.8
55	20	19	50.174761755976
55	21	20	51.852979607289
55	22	21	55.327724180985
55	23	22	60.62084451874
55	24	23	67.384964056158
55	25	24	73.41395521049
55	26	25	79.943043391916
55	27	26	86.669271346245
55	28	27	91.191019875079
55	29	28	96.595623842453
55	30	29	104.05647011431
55	31	30	111.85612393534
55	32	31	119.49384222507
55	33	32	129.32746946633
55	34	33	141.38165782177
55	35	34	155.09018001313
55	36	35	170.2055958447
55	37	36	187.21786646588
55	38	37	206.65924149268
55	39	38	228.16284892835
55	40	39	251.25410890782
55	41	40	276.29552163922
55	42	41	303.2508401421
vector 123 RSUExampleScenario.node[25].veinsmobility posx ETV
vector 124 RSUExampleScenario.node[25].veinsmobility posy ETV
vector 125 RSUExampleScenario.node[24].veinsmobility acceleration ETV
vector 126 RSUExampleScenario.node[24].veinsmobility co2emission ETV
vector 127 RSUExampleScenario.node[25].veinsmobility speed ETV
81	28	27	2.0794850671396
81	29	28	2.9624912798077
81	30	29	5.3975852161835
81	31	30	5.4927790431964
81	32	31	6.9916429972334
81	33	32	7.313308097788
81	34	33	7.3563068246581
81	35	34	11.662119421932
81	36	35	12.476501180411
81	37	36	5.2757826880549
81	38	37	7.3482284843543
81	39	38	14.64331004134
81	40	39	8.802187793848
81	41	40	7.8547328768958
81	42	41	12.581107388172
81	43	42	13.703974067438
81	44	43	15.237824681472
80	28	27	1.3174705097685
80	29	28	1.6022816520417
80	30	29	2.441915060929
80	31	30	1.8908973164158
80	32	31	2.0517582394183
80	33	32	1.8092645284254
80	34	33	1.5737455872586
80	35	34	2.3691665654071
80	36	35	2.2044952810043
80	37	36	0.56181358979242
80	38	37	0.93394127506545
80	39	38	2.1374444498458
80	40	39	0.96985789269504
80	41	40	0.74906156323173
80	42	41	1.4291921088938
80	43	42	1.4705581072718
80	44	43	1.5551392468857
79	27	26	1.3285244978731
79	28	27	2.6459950076416
79	29	28	4.2482766596833
79	30	29	6.6901917206123
79	31	30	8.5810890370281
79	32	31	10.632847276446
79	33	32	12.442111804872
79	34	33	14.01585739213
79	35	34	16.385023957537
79	36	35	18.589519238542
79	37	36	19.151332828334
79	38	37	20.0852741034
79	39	38	22.222718553246
79	40	39	23.192576445941
79	41	40	23.941638009172
79	42	41	25.370830118066
79	43	42	26.841388225338
79	44	43	28.396527472224
74	26	25	29.8
74	27	26	29.8
74	28	27	29.8
74	29	28	29.8
74	30	29	29.8
74	31	30	29.8
74	32	31	29.8
74	33	32	29.8
74	34	33	29.8
74	35	34	29.8
74	36	35	29.8
74	37	36	29.8
74	38	37	29.8
74	39	38	29.8
74	40	39	29.8
74	41	40	29.8
74	42	41	29.8
74	43	42	29.8
74	44	43	29.8
73	26	25	30.1
73	27	26	31.428524497873
73	28	27	34.074519505515
73	29	28	38.322796165198
73	30	29	45.01298788581
73	31	30	53.594076922839
73	32	31	64.226924199285
73	33	32	76.669036004157
73	34	33	90.684893396287
73	35	34	107.06991735382
73	36	35	125.64943659237
73	37	36	144.8007694207
73	38	37	164.8860435241
73	39	38	187.10876207735
73	40	39	210.30133852329
73	41	40	234.24297653246
73	42	41	259.61380665053
73	43	42	286.45519487586
73	44	43	314.85172234809
54	19	18	3.7161189414692
54	20	19	4.8205095764906
54	21	20	6.7554399672053
54	22	21	0.973
54	23	22	0.973
54	24	23	0.973
54	25	24	3.7299147013956
54	26	25	3.3363016476809
54	27	26	0.973
54	28	27	5.0153962203426
54	29	28	5.0048094170913
54	30	29	2.2159835009881
54	31	30	7.2861704638688
54	32	31	10.221043450431
54	33	32	8.2992546851935
54	34	33	12.689499980216
54	35	34	7.1036626194995
54	36	35	0.973
54	37	36	0.973
54	38	37	0.973
54	39	38	0.973
54	40	39	5.2836949839034
54	41	40	7.9853325371215
54	42	41	8.3032025628074
54	43	42	7.0403701333488
54	44	43	13.51766294293
53	19	18	2.4863783669425
53	20	19	2.2442279572366
53	21	20	2.4577193551231
53	22	21	-0.44032685640341
53	23	22	-2.1318943704929
53	24	23	-1.4967499834741
53	25	24	1.5413098684133
53	26	25	1.0547719440485
53	27	26	-2.651822243856
53	28	27	2.1761559066596
53	29	28	1.6841966199689
53	30	29	0.29505575344169
53	31	30	2.1138634649105
53	32	31	2.5496271135285
53	33	32	1.6879870163044
53	34	33	2.4239473111462
53	35	34	1.0100178914744
53	36	35	-4.5
53	37	36	-2.5370228992441
53	38	37	-1.7778384139369
53	39	38	-1.5833465358869
53	40	39	1.5515742329182
53	41	40	2.1550689851632
53	42	41	1.8994445025455
53	43	42	1.3437748074532
53	44	43	2.5923640735913
50	18	17	1.5295409511309
50	19	18	4.0159193180734
50	20	19	6.26014727531
50	21	20	8.7178666304331
50	22	21	8.2775397740297
50	23	22	6.1456454035368
50	24	23	4.6488954200628
50	25	24	6.1902052884761
50	26	25	7.2449772325246
50	27	26	4.5931549886685
50	28	27	6.7693108953281
50	29	28	8.453507515297
50	30	29	8.7485632687386
50	31	30	10.862426733649
50	32	31	13.412053847178
50	33	32	15.100040863482
50	34	33	17.523988174628
50	35	34	18.534006066103
50	36	35	14.034006066103
50	37	36	11.496983166859
50	38	37	9.7191447529216
50	39	38	8.1357982170347
50	40	39	9.687372449953
50	41	40	11.842441435116
50	42	41	13.741885937662
50	43	42	15.085660745115
50	44	43	17.678024818706
48	17	16	73.656625527261
48	18	17	72.845856515047
48	19	18	70.717124403467
48	20	19	67.398786689808
48	21	20	62.777677257367
48	22	21	58.38997339027
48	23	22	55.132330076069
48	24	23	52.668074153515
48	25	24	49.38681082844
48	26	25	45.546440925307
48	27	26	43.11173152419
48	28	27	39.576868309549
48	29	28	35.096455924625
48	30	29	33
48	31	30	33
48	32	31	33
48	33	32	33
48	34	33	33
48	35	34	33
48	36	35	33
48	37	36	33
48	38	37	33
48	39	38	35.218558655901
48	40	39	40.352805394561
48	41	40	46.629225200874
48	42	41	53.912338699708
48	43	42	61.907644432122
48	44	43	71.276886890827
47	17	16	50.174761755976
47	18	17	51.47180101277
47	19	18	54.877270479806
47	20	19	60.1858284255
47	21	20	67.578513954322
47	22	21	74.59780561085
47	23	22	79.809266827909
47	24	23	83.751495282854
47	25	24	89.000742948195
47	26	25	95.144429312535
47	27	26	99.039390299646
47	28	27	104.69365045123
47	29	28	111.86017419446
47	30	29	120.07527396161
47	31	30	130.93770069526
47	32	31	144.34975454244
47	33	32	159.44979540592
47	34	33	176.97378358055
47	35	34	195.50778964665
47	36	35	209.54179571275
47	37	36	221.03877887961
47	38	37	230.75792363253
47	39	38	238.32563815196
47	40	39	246.54019029456
47	41	40	256.58216536747
47	42	41	268.23480277309
47	43	42	281.02691409497
47	44	43	296.01725924806
vector 128 RSUExampleScenario.node[25].veinsmobility acceleration ETV
vector 129 RSUExampleScenario.node[25].veinsmobility co2emission ETV
vector 130 RSUExampleScenario.node[26].veinsmobility posx ETV
vector 131 RSUExampleScenario.node[26].veinsmobility posy ETV
vector 132 RSUExampleScenario.node[27].veinsmobility posx ETV
vector 133 RSUExampleScenario.node[27].veinsmobility posy ETV
91	31	30	2.477526940792
91	32	31	3.5236207716278
91	33	32	4.755290478931
91	34	33	4.0215465853793
91	35	34	7.1991017634443
91	36	35	7.9083362049441
91	37	36	9.0998561709791
91	38	37	12.793508786638
91	39	38	9.3255268805859
91	40	39	15.303062378969
91	41	40	14.11219375472
91	42	41	17.725965425822
91	43	42	21.631403700723
91	44	43	14.856948843639
91	45	44	21.294208445846
91	46	45	21.313742961684
90	31	30	2.071367603261
90	32	31	2.0132990680169
90	33	32	2.0791788902599
90	34	33	1.306320399628
90	35	34	2.2508514925372
90	36	35	2.0549746497534
90	37	36	2.048731820914
90	38	37	2.5732559396885
90	39	38	1.5284379143734
90	40	39	2.4632722997339
90	41	40	1.9689447691198
90	42	41	2.3065734611824
90	43	42	2.5833849457791
90	44	43	1.4347570260055
90	45	44	2.1092279310804
90	46	45	1.9098876064643
87	30	29	0.4240519081288
87	31	30	2.4954195113898
87	32	31	4.5087185794068
87	33	32	6.5878974696667
87	34	33	7.8942178692947
87	35	34	10.145069361832
87	36	35	12.200044011585
87	37	36	14.248775832499
87	38	37	16.822031772188
87	39	38	18.350469686561
87	40	39	20.813741986295
87	41	40	22.782686755415
87	42	41	25.089260216597
87	43	42	27.672645162376
87	44	43	29.107402188382
87	45	44	31.216630119462
87	46	45	33.126517725927
84	29	28	29.8
84	30	29	29.8
84	31	30	29.8
84	32	31	29.8
84	33	32	29.8
84	34	33	29.8
84	35	34	29.8
84	36	35	29.8
84	37	36	29.8
84	38	37	26.6
84	39	38	26.6
84	40	39	26.6
84	41	40	26.6
84	42	41	26.6
84	43	42	26.6
84	44	43	26.6
84	45	44	26.6
84	46	45	26.6
83	29	28	30.1
83	30	29	30.524051908129
83	31	30	33.019471419519
83	32	31	37.528189998925
83	33	32	44.116087468592
83	34	33	52.010305337887
83	35	34	62.155374699719
83	36	35	74.355418711304
83	37	36	88.604194543803
83	38	37	105.42622631599
83	39	38	123.76669600255
83	40	39	144.58043798885
83	41	40	167.36312474426
83	42	41	192.45238496086
83	43	42	220.12503012324
83	44	43	249.23243231162
83	45	44	280.44906243108
83	46	45	313.57558015701
vector 134 RSUExampleScenario.node[26].veinsmobility speed ETV
vector 135 RSUExampleScenario.node[27].veinsmobility speed ETV
vector 136 RSUExampleScenario.node[26].veinsmobility acceleration ETV
vector 137 RSUExampleScenario.node[26].veinsmobility co2emission ETV
vector 138 RSUExampleScenario.node[27].veinsmobility acceleration ETV
vector 139 RSUExampleScenario.node[27].veinsmobility co2emission ETV
86	29	28	2.892990439494
86	30	29	5.234525904156
86	31	30	4.8135526732119
86	32	31	8.2518158316361
86	33	32	0.973
86	34	33	0.973
86	35	34	0.973
86	36	35	5.5072740813167
86	37	36	3.6457489559687
86	38	37	0.973
86	39	38	5.4523409740184
86	40	39	7.1905962929026
86	41	40	10.27732845756
86	42	41	10.328266177376
86	43	42	9.1111561934153
86	44	43	12.615994939802
86	45	44	12.547647479147
86	46	45	14.250142593058
86	47	46	17.009214401036
86	48	47	18.481618497587
85	29	28	1.7367471492384
85	30	29	2.4981698238757
85	31	30	1.6956188441254
85	32	31	2.5620933524799
85	33	32	-0.30361814721115
85	34	33	-0.84705778764406
85	35	34	-3.3091718682204
85	36	35	2.0202024008613
85	37	36	0.93035144375715
85	38	37	-0.38981829679832
85	39	38	1.5276684005279
85	40	39	1.8409282227047
85	41	40	2.3625791280065
85	42	41	2.0256168721709
85	43	42	1.526093074563
85	44	43	2.0357818060555
85	45	44	1.7969029213535
85	46	45	1.8885980707826
85	47	46	2.1047765270807
85	48	47	2.0891749978066
82	28	27	2.0719536253251
82	29	28	3.8087007745635
82	30	29	6.3068705984391
82	31	30	8.0024894425645
82	32	31	10.564582795044
82	33	32	10.260964647833
82	34	33	9.4139068601892
82	35	34	6.1047349919688
82	36	35	8.1249373928301
82	37	36	9.0552888365872
82	38	37	8.6654705397889
82	39	38	10.193138940317
82	40	39	12.034067163021
82	41	40	14.396646291028
82	42	41	16.422263163199
82	43	42	17.948356237762
82	44	43	19.984138043817
82	45	44	21.781040965171
82	46	45	23.669639035953
82	47	46	25.774415563034
82	48	47	27.863590560841
78	27	26	73.656625527261
78	28	27	72.558337970516
78	29	28	70.539446902231
78	30	29	67.196342396606
78	31	30	62.954435401039
78	32	31	57.354430804322
78	33	32	51.915366119101
78	34	33	46.92530425742
78	35	34	43.689346465239
78	36	35	39.435919515459
78	37	36	34.636559228727
78	38	37	33
78	39	38	29.8
78	40	39	29.8
78	41	40	29.8
78	42	41	29.8
78	43	42	29.8
78	44	43	29.8
78	45	44	29.8
78	46	45	29.8
78	47	46	29.8
78	48	47	29.8
77	27	26	50.174761755976
77	28	27	51.931762893027
77	29	28	55.161512589063
77	30	29	60.5096915624
77	31	30	67.2957426004
77	32	31	76.254429588606
77	33	32	84.955650664756
77	34	33	92.938573088925
77	35	34	98.115342583755
77	36	35	104.91910132331
77	37	36	112.59578964845
77	38	37	120.85990050513
77	39	38	131.05303944545
77	40	39	143.08710660847
77	41	40	157.4837528995
77	42	41	173.9060160627
77	43	42	191.85437230046
77	44	43	211.83851034428
77	45	44	233.61955130945
77	46	45	257.2891903454
77	47	46	283.06360590844
77	48	47	310.92719646928
vector 140 RSUExampleScenario.node[28].veinsmobility posx ETV
vector 141 RSUExampleScenario.node[28].veinsmobility posy ETV
vector 142 RSUExampleScenario.node[29].veinsmobility posx ETV
vector 143 RSUExampleScenario.node[29].veinsmobility posy ETV
vector 144 RSUExampleScenario.node[28].veinsmobility speed ETV
vector 145 RSUExampleScenario.node[29].veinsmobility speed ETV
76	26	25	2.4920539456555
76	27	26	4.0815629659065
76	28	27	6.1021647172172
76	29	28	7.9140993039789
76	30	29	1.8690329931655
76	31	30	1.6115811238755
76	32	31	0.973
76	33	32	5.6923314242613
76	34	33	2.5820915354366
76	35	34	0.973
76	36	35	5.9094923296918
76	37	36	5.3062861591933
76	38	37	7.2820072816704
76	39	38	8.5590297361132
76	40	39	9.1757112725661
76	41	40	11.27526057741
76	42	41	0.973
76	43	42	0.973
76	44	43	0.973
76	45	44	3.1757522037097
76	46	45	5.5204774217894
76	47	46	8.3248420037045
76	48	47	9.8810260750592
76	49	48	10.942731566236
76	50	49	8.344506521291
75	26	25	1.5253251122544
75	27	26	2.0757848365232
75	28	27	2.4261941583594
75	29	28	2.4964340651874
75	30	29	0.062107160180497
75	31	30	-0.03976170423182
75	32	31	-3.5648252033396
75	33	32	1.9506598556647
75	34	33	0.43477106067868
75	35	34	-1.6584844898457
75	36	35	1.8878108807374
75	37	36	1.3737010220066
75	38	37	1.7815836664522
75	39	38	1.865669381828
75	40	39	1.7685612914385
75	41	40	1.9946309867082
75	42	41	-2.4536302878521
75	43	42	-4.5
75	44	43	-4.5
75	45	44	0.90258156564087
75	46	45	1.7249017789727
75	47	46	2.3153523929184
75	48	47	2.3269684547558
75	49	48	2.2171414546436
75	50	49	1.3876751298783
72	25	24	1.7900757990545
72	26	25	3.3154009113088
72	27	26	5.3911857478321
72	28	27	7.8173799061915
72	29	28	10.313813971379
72	30	29	10.375921131559
72	31	30	10.336159427328
72	32	31	6.771334223988
72	33	32	8.7219940796527
72	34	33	9.1567651403313
72	35	34	7.4982806504857
72	36	35	9.386091531223
72	37	36	10.75979255323
72	38	37	12.541376219682
72	39	38	14.40704560151
72	40	39	16.175606892948
72	41	40	18.170237879657
72	42	41	15.716607591804
72	43	42	11.216607591804
72	44	43	6.7166075918045
72	45	44	7.6191891574453
72	46	45	9.344090936418
72	47	46	11.659443329336
72	48	47	13.986411784092
72	49	48	16.203553238736
72	50	49	17.591228368614
68	24	23	73.656625527261
68	25	24	72.707753915608
68	26	25	70.950347995897
68	27	26	68.092623696195
68	28	27	63.948838346764
68	29	28	58.481759639548
68	30	29	52.981759577155
68	31	30	47.502836137548
68	32	31	43.913531806663
68	33	32	39.343632658643
68	34	33	34.490489289889
68	35	34	33
68	36	35	33
68	37	36	33
68	38	37	33
68	39	38	33
68	40	39	33
68	41	40	33
68	42	41	33
68	43	42	33
68	44	43	33.262523408026
68	45	44	37.223923390873
68	46	45	42.1762330769
68	47	46	48.355665033037
68	48	47	55.768375699321
68	49	48	64.356157453401
68	50	49	73.679398337055
67	24	23	50.174761755976
67	25	24	51.692732610103
67	26	25	54.50416772127
67	27	26	59.075852807856
67	28	27	65.704932347116
67	29	28	74.450969253325
67	30	29	83.249672565637
67	31	30	92.014658250925
67	32	31	97.756698895795
67	33	32	105.06671629571
67	34	33	112.82943191057
67	35	34	119.96831098911
67	36	35	129.35440252033
67	37	36	140.11419507356
67	38	37	152.65557129324
67	39	38	167.06261689475
67	40	39	183.2382237877
67	41	40	201.40846166736
67	42	41	217.12506925916
67	43	42	228.34167685097
67	44	43	235.02852286406
67	45	44	241.53412695643
67	46	45	249.45758841297
67	47	46	259.34438750914
67	48	47	271.20437425806
67	49	48	284.94441921479
67	50	49	299.86116402179
vector 146 RSUExampleScenario.node[28].veinsmobility acceleration ETV
vector 147 RSUExampleScenario.node[28].veinsmobility co2emission ETV
vector 148 RSUExampleScenario.node[29].veinsmobility acceleration ETV
vector 149 RSUExampleScenario.node[29].veinsmobility co2emission ETV
vector 150 RSUExampleScenario.node[30].veinsmobility posx ETV
vector 151 RSUExampleScenario.node[30].veinsmobility posy ETV
vector 152 RSUExampleScenario.node[31].veinsmobility posx ETV
vector 153 RSUExampleScenario.node[31].veinsmobility posy ETV
vector 154 RSUExampleScenario.node[30].veinsmobility speed ETV
111	38	37	1.9385868833666
111	39	38	3.1136318960679
111	40	39	5.1664178657226
111	41	40	6.31411460782
111	42	41	6.1891767930468
111	43	42	10.055676170394
111	44	43	9.4999113663659
111	45	44	13.181880768734
111	46	45	9.2656094334883
111	47	46	12.929357798202
111	48	47	11.53557205406
111	49	48	11.447533875748
111	50	49	19.840277116302
111	51	50	14.490586876337
111	52	51	21.807375863002
111	53	52	21.681010600036
110	38	37	1.3830026624491
110	39	38	1.8580239116214
110	40	39	2.401982227969
110	41	40	2.2569264823804
110	42	41	1.7729400150478
110	43	42	2.5811517945258
110	44	43	2.0238405555952
110	45	44	2.5284740116913
110	46	45	1.4391225100961
110	47	46	1.9664169136435
110	48	47	1.525964243128
110	49	48	1.3756513528526
110	50	49	2.4793437642744
110	51	50	1.4939663887955
110	52	51	2.2974531752989
110	53	52	2.0509439486312
107	37	36	0.78619603993455
107	38	37	2.1691987023837
107	39	38	4.0272226140051
107	40	39	6.4292048419741
107	41	40	8.6861313243545
107	42	41	10.459071339402
107	43	42	13.040223133928
107	44	43	15.064063689523
107	45	44	17.592537701215
107	46	45	19.031660211311
107	47	46	20.998077124954
107	48	47	22.524041368082
107	49	48	23.899692720935
107	50	49	26.379036485209
107	51	50	27.873002874005
107	52	51	30.170456049303
107	53	52	32.221399997935
104	36	35	29.8
104	37	36	29.8
104	38	37	29.8
104	39	38	29.8
104	40	39	29.8
104	41	40	29.8
104	42	41	29.8
104	43	42	29.8
104	44	43	29.8
104	45	44	26.6
104	46	45	26.6
104	47	46	26.6
104	48	47	26.6
104	49	48	26.6
104	50	49	26.6
104	51	50	26.6
104	52	51	26.6
104	53	52	26.6
103	36	35	30.1
103	37	36	30.886196039935
103	38	37	33.055394742318
103	39	38	37.082617356323
103	40	39	43.511822198297
103	41	40	52.197953522652
103	42	41	62.657024862054
103	43	42	75.697247995982
103	44	43	90.761311685506
103	45	44	108.35384938672
103	46	45	127.37550959803
103	47	46	148.37358672298
103	48	47	170.89762809107
103	49	48	194.797320812
103	50	49	221.17635729721
103	51	50	249.04936017122
103	52	51	279.21981622052
103	53	52	311.44121621845
vector 155 RSUExampleScenario.node[30].veinsmobility acceleration ETV
vector 156 RSUExampleScenario.node[30].veinsmobility co2emission ETV
vector 157 RSUExampleScenario.node[31].veinsmobility speed ETV
vector 158 RSUExampleScenario.node[32].veinsmobility posx ETV
vector 159 RSUExampleScenario.node[32].veinsmobility posy ETV
vector 160 RSUExampleScenario.node[33].veinsmobility posx ETV
vector 161 RSUExampleScenario.node[33].veinsmobility posy ETV
vector 162 RSUExampleScenario.node[31].veinsmobility acceleration ETV
vector 163 RSUExampleScenario.node[31].veinsmobility co2emission ETV
101	35	34	2.1360773696994
101	36	35	3.0636957272972
101	37	36	3.3452554747237
101	38	37	5.5569594468699
101	39	38	6.4291556525743
101	40	39	9.5462919627493
101	41	40	11.099430271503
101	42	41	8.4177064000877
101	43	42	14.423997931169
101	44	43	16.23213548215
101	45	44	10.610426294214
101	46	45	1.0877844416518
101	47	46	0.973
101	48	47	0.973
101	49	48	0.973
101	50	49	0.973
101	51	50	7.0131133793886
101	52	51	5.5244532120515
101	53	52	7.1838566850957
101	54	53	7.9288838428584
101	55	54	8.1168208294463
100	35	34	1.3486240211409
100	36	35	1.641167819337
100	37	36	1.3924085543025
100	38	37	2.1141599122668
100	39	38	1.9948394750012
100	40	39	2.5542812527856
100	41	40	2.4904455303913
100	42	41	1.5371377159143
100	43	42	2.5637198691722
100	44	43	2.5314888110734
100	45	44	1.3216329743853
100	46	45	-0.39809504713633
100	47	46	-4.3674432890257
100	48	47	-4.5
100	49	48	-4.5
100	50	49	-0.83262173784897
100	51	50	2.1134818331571
100	52	51	1.3112644350389
100	53	52	1.6218553989427
100	54	53	1.6079193031183
100	55	54	1.4683507010574
99	34	33	1.3952366554644
99	35	34	2.7438606766053
99	36	35	4.3850284959422
99	37	36	5.7774370502448
99	38	37	7.8915969625115
99	39	38	9.8864364375127
99	40	39	12.440717690298
99	41	40	14.93116322069
99	42	41	16.468300936604
99	43	42	19.032020805776
99	44	43	21.563509616849
99	45	44	22.885142591235
99	46	45	22.487047544098
99	47	46	18.119604255073
99	48	47	13.619604255073
99	49	48	9.1196042550728
99	50	49	8.2869825172238
99	51	50	10.400464350381
99	52	51	11.71172878542
99	53	52	13.333584184363
99	54	53	14.941503487481
99	55	54	16.409854188538
94	33	32	29.8
94	34	33	29.8
94	35	34	29.8
94	36	35	29.8
94	37	36	29.8
94	38	37	29.8
94	39	38	29.8
94	40	39	29.8
94	41	40	29.8
94	42	41	29.8
94	43	42	29.8
94	44	43	33
94	45	44	33
94	46	45	33
94	47	46	33
94	48	47	33
94	49	48	33.000286700585
94	50	49	36.400217916753
94	51	50	41.912398897443
94	52	51	48.119541817906
94	53	52	55.18625794417
94	54	53	63.105161232714
94	55	54	71.802281198386
93	33	32	30.1
93	34	33	31.495236655464
93	35	34	34.23909733207
93	36	35	38.624125828012
93	37	36	44.401562878257
93	38	37	52.293159840768
93	39	38	62.179596278281
93	40	39	74.620313968579
93	41	40	89.551477189269
93	42	41	106.01977812587
93	43	42	125.04179893165
93	44	43	146.6053085485
93	45	44	169.49045113973
93	46	45	191.97749868383
93	47	46	210.0971029389
93	48	47	223.71670719398
93	49	48	232.83634193333
93	50	49	240.21623712531
93	51	50	249.03546619437
93	52	51	258.96660152388
93	53	52	270.27301336011
93	54	53	282.94288438249
93	55	54	296.85786531056
106	36	35	2.4968256390125
106	37	36	4.5076589875156
106	38	37	6.2289032550911
106	39	38	5.792140392077
106	40	39	2.0595041764534
106	41	40	1.8898726755039
106	42	41	0.973
106	43	42	6.1679873577765
106	44	43	1.9936011448359
106	45	44	0.973
106	46	45	6.4287326077045
106	47	46	8.5751421670801
106	48	47	8.7707746896928
106	49	48	12.601624179071
106	50	49	10.488035696164
106	51	50	15.894432940452
106	52	51	12.105914894594
106	53	52	13.821725254977
106	54	53	18.490712320597
106	55	54	16.440058979394
105	36	35	1.3330113720149
105	37	36	2.1713042821269
105	38	37	2.3459477302851
105	39	38	1.7107399272732
105	40	39	0.14997468123275
105	41	40	0.07738043130168
105	42	41	-3.9771701282822
105	43	42	2.2505232114345
105	44	43	0.19428110140427
105	45	44	-0.3810806474076
105	46	45	1.9225898718229
105	47	46	2.2313503152458
105	48	47	1.9329202841036
105	49	48	2.514767751866
105	50	49	1.7544836585876
105	51	50	2.5266225533327
105	52	51	1.6049074374605
105	53	52	1.7233704460086
105	54	53	2.2254107195418
105	55	54	1.7259875517804
102	35	34	2.4071999316569
102	36	35	3.7402113036718
102	37	36	5.9115155857988
102	38	37	8.2574633160839
102	39	38	9.9682032433571
102	40	39	10.11817792459
102	41	40	10.195558355892
102	42	41	6.2183882276094
102	43	42	8.4689114390439
102	44	43	8.6631925404482
102	45	44	8.2821118930406
102	46	45	10.204701764863
102	47	46	12.436052080109
102	48	47	14.368972364213
102	49	48	16.883740116079
102	50	49	18.638223774666
102	51	50	21.164846327999
102	52	51	22.76975376546
102	53	52	24.493124211468
102	54	53	26.71853493101
102	55	54	28.44452248279
98	34	33	73.656625527261
98	35	34	72.380632812356
98	36	35	70.398046192553
98	37	36	67.264508872975
98	38	37	62.887447002725
98	39	38	57.603567358183
98	40	39	52.240190120543
98	41	40	46.835795572576
98	42	41	43.5395932204
98	43	42	39.103876812418
98	44	43	34.512330039558
98	45	44	33
98	46	45	29.8
98	47	46	29.8
98	48	47	29.8
98	49	48	29.8
98	50	49	29.8
98	51	50	29.8
98	52	51	29.8
98	53	52	29.8
98	54	53	29.8
98	55	54	29.8
97	34	33	50.174761755976
97	35	34	52.216049246842
97	36	35	55.387720385153
97	37	36	60.40064127247
97	38	37	67.402908243209
97	39	38	75.855869843732
97	40	39	84.436008849305
97	41	40	93.081765880359
97	42	41	98.354912466746
97	43	42	105.45021134414
97	44	43	112.79449712385
97	45	44	120.71093376119
97	46	45	130.91563552606
97	47	46	143.35168760616
97	48	47	157.72065997038
97	49	48	174.60440008646
97	50	49	193.24262386112
97	51	50	214.40747018912
97	52	51	237.17722395458
97	53	52	261.67034816605
97	54	53	288.38888309706
97	55	54	316.83340557985
vector 164 RSUExampleScenario.node[32].veinsmobility speed ETV
vector 165 RSUExampleScenario.node[33].veinsmobility speed ETV
vector 166 RSUExampleScenario.node[32].veinsmobility acceleration ETV
vector 167 RSUExampleScenario.node[32].veinsmobility co2emission ETV
vector 168 RSUExampleScenario.node[33].veinsmobility acceleration ETV
vector 169 RSUExampleScenario.node[33].veinsmobility co2emission ETV
121	42	41	2.5916791325208
121	43	42	4.3279308296204
121	44	43	5.8945528885767
121	45	44	6.2599283892615
121	46	45	6.0333780066595
121	47	46	8.6507570106694
121	48	47	8.9953379589114
121	49	48	11.972904909415
121	50	49	8.5431507759153
121	51	50	11.959039015968
121	52	51	11.492930711477
121	53	52	19.13750426636
121	54	53	15.681677111053
121	55	54	19.838327066118
121	56	55	17.650515101042
121	57	56	24.292692757046
120	42	41	1.6563800502801
120	43	42	2.2097789225867
120	44	43	2.3128917223774
120	45	44	1.9490941537078
120	46	45	1.5537735978374
120	47	46	2.066712423088
120	48	47	1.8558741274755
120	49	48	2.2566867448157
120	50	49	1.3036597494269
120	51	50	1.8186493640533
120	52	51	1.55320983727
120	53	52	2.5846755577717
120	54	53	1.8044736620272
120	55	54	2.1849930824712
120	56	55	1.6977589455433
120	57	56	2.322599040065
119	41	40	1.6477230939781
119	42	41	3.3041031442583
119	43	42	5.513882066845
119	44	43	7.8267737892224
119	45	44	9.7758679429302
119	46	45	11.329641540768
119	47	46	13.396353963856
119	48	47	15.252228091331
119	49	48	17.508914836147
119	50	49	18.812574585574
119	51	50	20.631223949627
119	52	51	22.184433786897
119	53	52	24.769109344669
119	54	53	26.573583006696
119	55	54	28.758576089167
119	56	55	30.45633503471
119	57	56	32.778934074775
114	40	39	29.8
114	41	40	29.8
114	42	41	29.8
114	43	42	29.8
114	44	43	29.8
114	45	44	29.8
114	46	45	29.8
114	47	46	29.8
114	48	47	29.8
114	49	48	29.8
114	50	49	29.8
114	51	50	29.8
114	52	51	29.8
114	53	52	29.8
114	54	53	29.8
114	55	54	29.8
114	56	55	29.8
114	57	56	29.8
113	40	39	30.1
113	41	40	31.747723093978
113	42	41	35.051826238236
113	43	42	40.565708305081
113	44	43	48.392482094304
113	45	44	58.168350037234
113	46	45	69.497991578002
113	47	46	82.894345541857
113	48	47	98.146573633188
113	49	48	115.64937752936
113	50	49	134.45806305491
113	51	50	155.08928700454
113	52	51	177.27372079143
113	53	52	202.0428301361
113	54	53	228.6164131428
113	55	54	257.37498923196
113	56	55	287.83132426667
113	57	56	320.61025834145
96	33	32	3.9036795392167
96	34	33	5.770292416934
96	35	34	5.3125878581432
96	36	35	8.655895512715
96	37	36	5.8191699781738
96	38	37	0.973
96	39	38	0.973
96	40	39	4.5666347907683
96	41	40	4.2620135729039
96	42	41	1.6634950191027
96	43	42	6.6433295034885
96	44	43	1.6677731804882
96	45	44	9.1378180861654
96	46	45	10.983402217786
96	47	46	7.5939182433159
96	48	47	10.055389229741
96	49	48	0.973
96	50	49	0.973
96	51	50	0.973
96	52	51	0.973
96	53	52	7.4434443432725
96	54	53	5.5566459183794
96	55	54	10.394611623131
96	56	55	11.752515786147
96	57	56	12.56949223094
95	33	32	2.4275753875496
95	34	33	2.5600176701089
95	35	34	1.7686637376668
95	36	35	2.5320213939529
95	37	36	1.2957200035425
95	38	37	-4.1161292791949
95	39	38	-4.5
95	40	39	2.1435714884661
95	41	40	1.5021020626184
95	42	41	0.077076432459442
95	43	42	2.1122278542025
95	44	43	0
95	45	44	2.4642046541208
95	46	45	2.4968892027391
95	47	46	1.3708273590542
95	48	47	1.7555973932613
95	49	48	-4.3499457091999
95	50	49	-4.2106818231909
95	51	50	-0.72746771551419
95	52	51	-0.55885689093611
95	53	52	2.3054398271255
95	54	53	1.3313380909851
95	55	54	2.4546444857493
95	56	55	2.3750946834916
95	57	56	2.2098804265726
92	32	31	1.9714121573372
92	33	32	4.3989875448868
92	34	33	6.9590052149957
92	35	34	8.7276689526625
92	36	35	11.259690346615
92	37	36	12.555410350158
92	38	37	8.439281070963
92	39	38	3.939281070963
92	40	39	6.0828525594291
92	41	40	7.5849546220475
92	42	41	7.6620310545069
92	43	42	9.7742589087094
92	44	43	9.7742589087094
92	45	44	12.23846356283
92	46	45	14.735352765569
92	47	46	16.106180124624
92	48	47	17.861777517885
92	49	48	13.511831808685
92	50	49	9.301149985494
92	51	50	8.5736822699798
92	52	51	8.0148253790437
92	53	52	10.320265206169
92	54	53	11.651603297154
92	55	54	14.106247782904
92	56	55	16.481342466395
92	57	56	18.691222892968
89	31	30	73.656625527261
89	32	31	72.61163233091
89	33	32	70.279845931941
89	34	33	66.591062195887
89	35	34	61.964756812918
89	36	35	55.996294174883
89	37	36	49.341004795397
89	38	37	44.867566164906
89	39	38	42.779457951536
89	40	39	39.608464058205
89	41	40	35.588390193456
89	42	41	33
89	43	42	33
89	44	43	33
89	45	44	33
89	46	45	33
89	47	46	33
89	48	47	33
89	49	48	33
89	50	49	33
89	51	50	33
89	52	51	34.719640743548
89	53	52	40.189316679993
89	54	53	46.364593468165
89	55	54	53.840816463437
89	56	55	62.575824768733
89	57	56	72.482055862413
88	31	30	50.174761755976
88	32	31	51.846504482116
88	33	32	55.576812932928
88	34	33	61.477997170859
88	35	34	68.878994995426
88	36	35	78.427127974871
88	37	36	89.074021800938
88	38	37	96.230468864395
88	39	38	99.570949672579
88	40	39	104.64311231691
88	41	40	111.07331389795
88	42	41	118.06057494457
88	43	42	127.83483385327
88	44	43	137.60909276198
88	45	44	149.84755632481
88	46	45	164.58290909038
88	47	46	180.68908921501
88	48	47	198.55086673289
88	49	48	212.06269854158
88	50	49	221.36384852707
88	51	50	229.93753079705
88	52	51	237.52739307055
88	53	52	246.27861607756
88	54	53	256.15876710136
88	55	54	268.12037057513
88	56	55	282.09597105602
88	57	56	297.94547264754
vector 170 RSUExampleScenario.node[34].veinsmobility posx ETV
vector 171 RSUExampleScenario.node[34].veinsmobility posy ETV
vector 172 RSUExampleScenario.node[34].veinsmobility speed ETV
129	45	44	3.0464427190604
129	46	45	4.3071780583235
129	47	46	6.6905299271464
129	48	47	6.283351897926
129	49	48	9.4081556721165
129	50	49	10.193841036529
129	51	50	9.8560831553562
129	52	51	11.379243558509
129	53	52	14.408829363013
129	54	53	10.888705306501
129	55	54	14.556217021397
129	56	55	17.879469889995
129	57	56	18.812533906535
129	58	57	20.005635425822
129	59	58	16.35100700289
128	45	44	1.9197801076109
128	46	45	2.0587194488849
128	47	46	2.5373156244867
128	48	47	1.857277649641
128	49	48	2.452317765262
128	50	49	2.2397476252168
128	51	50	1.8545888965251
128	52	51	1.9414770999923
128	53	52	2.2609293502755
128	54	53	1.4187564496882
128	55	54	1.8724571230589
128	56	55	2.1638504569884
128	57	56	2.0654626846779
128	58	57	2.0122388571268
128	59	58	1.3916133532301
127	44	43	1.8606565860333
127	45	44	3.7804366936442
127	46	45	5.8391561425291
127	47	46	8.3764717670158
127	48	47	10.233749416657
127	49	48	12.686067181919
127	50	49	14.925814807136
127	51	50	16.780403703661
127	52	51	18.721880803653
127	53	52	20.982810153929
127	54	53	22.401566603617
127	55	54	24.274023726676
127	56	55	26.437874183664
127	57	56	28.503336868342
127	58	57	30.515575725469
127	59	58	31.907189078699
124	43	42	29.8
124	44	43	29.8
124	45	44	29.8
124	46	45	29.8
124	47	46	29.8
124	48	47	29.8
124	49	48	29.8
124	50	49	29.8
124	51	50	29.8
124	52	51	29.8
124	53	52	29.8
124	54	53	29.8
124	55	54	29.8
124	56	55	29.8
124	57	56	29.8
124	58	57	29.8
124	59	58	29.8
123	43	42	30.1
123	44	43	31.960656586033
123	45	44	35.741093279677
123	46	45	41.580249422207
123	47	46	49.956721189222
123	48	47	60.190470605879
123	49	48	72.876537787798
123	50	49	87.802352594933
123	51	50	104.58275629859
123	52	51	123.29463710225
123	53	52	144.27744725618
123	54	53	166.67901385979
123	55	54	190.95303758647
123	56	55	217.39091177013
123	57	56	245.89424863847
123	58	57	276.40982436394
123	59	58	308.31701344264
vector 173 RSUExampleScenario.node[35].veinsmobility posx ETV
vector 174 RSUExampleScenario.node[35].veinsmobility posy ETV
vector 175 RSUExampleScenario.node[36].veinsmobility posx ETV
vector 176 RSUExampleScenario.node[36].veinsmobility posy ETV
vector 177 RSUExampleScenario.node[34].veinsmobility acceleration ETV
vector 178 RSUExampleScenario.node[34].veinsmobility co2emission ETV
vector 179 RSUExampleScenario.node[35].veinsmobility speed ETV
vector 180 RSUExampleScenario.node[36].veinsmobility speed ETV
vector 181 RSUExampleScenario.node[35].veinsmobility acceleration ETV
vector 182 RSUExampleScenario.node[35].veinsmobility co2emission ETV
vector 183 RSUExampleScenario.node[36].veinsmobility acceleration ETV
vector 184 RSUExampleScenario.node[36].veinsmobility co2emission ETV
126	43	42	3.8113627090568
126	44	43	4.5697083709411
126	45	44	6.7283292558776
126	46	45	5.8060921532638
126	47	46	2.0355478435007
126	48	47	0.973
126	49	48	0.973
126	50	49	5.1753427233155
126	51	50	5.7098989076049
126	52	51	0.973
126	53	52	5.3765996448515
126	54	53	8.4542989905967
126	55	54	11.139224714724
126	56	55	11.591597187325
126	57	56	14.39894076692
126	58	57	10.799095594798
126	59	58	18.026715838629
126	60	59	18.147909824692
126	61	60	22.327921150757
126	62	61	16.931910715922
125	43	42	2.5689242461696
125	44	43	2.1172676656861
125	45	44	2.4729498582426
125	46	45	1.6542206899496
125	47	46	0.12719637623274
125	48	47	-0.64647111426211
125	49	48	-4.3749716227408
125	50	49	2.0471226169029
125	51	50	1.8273723290768
125	52	51	-0.35083965152445
125	53	52	1.4645789116621
125	54	53	2.1685530676972
125	55	54	2.4824028446572
125	56	55	2.2090899255127
125	57	56	2.451820328203
125	58	57	1.5227142807329
125	59	58	2.5390347848181
125	60	59	2.2586410922231
125	61	60	2.5676310051
125	62	61	1.624008454755
122	42	41	1.4698468166171
122	43	42	4.0387710627867
122	44	43	6.1560387284728
122	45	44	8.6289885867154
122	46	45	10.283209276665
122	47	46	10.410405652898
122	48	47	9.7639345386356
122	49	48	5.3889629158948
122	50	49	7.4360855327977
122	51	50	9.2634578618745
122	52	51	8.91261821035
122	53	52	10.377197122012
122	54	53	12.545750189709
122	55	54	15.028153034367
122	56	55	17.237242959879
122	57	56	19.689063288082
122	58	57	21.211777568815
122	59	58	23.750812353633
122	60	59	26.009453445856
122	61	60	28.577084450956
122	62	61	30.201092905711
118	41	40	73.656625527261
118	42	41	72.877498789442
118	43	42	70.736653575251
118	44	43	67.473501035694
118	45	44	62.899503492384
118	46	45	57.448647520548
118	47	46	51.930368129783
118	48	47	46.754765897384
118	49	48	43.898219861822
118	50	49	40.009862305411
118	51	50	35.100171120248
118	52	51	33
118	53	52	29.8
118	54	53	29.8
118	55	54	29.8
118	56	55	29.8
118	57	56	29.8
118	58	57	29.8
118	59	58	29.8
118	60	59	29.8
118	61	60	29.8
118	62	61	29.8
117	41	40	50.174761755976
117	42	41	51.421180834338
117	43	42	54.84602840953
117	44	43	60.066303088198
117	45	44	67.383620702429
117	46	45	76.10370505702
117	47	46	84.931650984832
117	48	47	93.211394255527
117	49	48	97.781194397298
117	50	49	104.00106649123
117	51	50	111.85423165271
117	52	51	120.23231918371
117	53	52	130.60951630572
117	54	53	143.15526649543
117	55	54	158.1834195298
117	56	55	175.42066248967
117	57	56	195.10972577776
117	58	57	216.32150334657
117	59	58	240.07231570021
117	60	59	266.08176914606
117	61	60	294.65885359702
117	62	61	324.85994650273
vector 185 RSUExampleScenario.node[37].veinsmobility posx ETV
vector 186 RSUExampleScenario.node[37].veinsmobility posy ETV
137	48	47	2.8477602594993
137	49	48	3.7775074522392
137	50	49	3.9541384166363
137	51	50	5.952448195828
137	52	51	6.661187928816
137	53	52	8.9354520948074
137	54	53	8.7067808003008
137	55	54	12.008372340153
137	56	55	9.0159321737057
137	57	56	12.158107553127
137	58	57	6.1791360535402
137	59	58	11.992586618171
137	60	59	14.246612787118
137	61	60	20.135536544794
137	62	61	17.362717736779
137	63	62	14.228710122975
136	48	47	1.5554283518344
136	49	48	1.6984143021749
136	50	49	1.417209739075
136	51	50	1.9594415015308
136	52	51	1.8450018931646
136	53	52	2.1920838658465
136	54	53	1.8124890015461
136	55	54	2.2968157358002
136	56	55	1.4167623634238
136	57	56	1.8633158824071
136	58	57	0.61891424563294
136	59	58	1.5816813787529
136	60	59	1.7858267050469
136	61	60	2.4414596055634
136	62	61	1.8192864015931
136	63	62	1.260850437864
134	47	46	2.5368349928176
134	48	47	4.092263344652
134	49	48	5.790677646827
134	50	49	7.207887385902
134	51	50	9.1673288874328
134	52	51	11.012330780597
134	53	52	13.204414646444
134	54	53	15.01690364799
134	55	54	17.31371938379
134	56	55	18.730481747214
134	57	56	20.593797629621
134	58	57	21.212711875254
134	59	58	22.794393254007
134	60	59	24.580219959054
134	61	60	27.021679564617
134	62	61	28.84096596621
134	63	62	30.101816404074
131	46	45	29.8
131	47	46	29.8
131	48	47	29.8
131	49	48	29.8
131	50	49	29.8
131	51	50	29.8
131	52	51	29.8
131	53	52	29.8
131	54	53	29.8
131	55	54	29.8
131	56	55	29.8
131	57	56	29.8
131	58	57	29.8
131	59	58	29.8
131	60	59	29.8
131	61	60	29.8
131	62	61	29.8
131	63	62	29.8
130	46	45	30.1
130	47	46	32.636834992818
130	48	47	36.72909833747
130	49	48	42.519775984297
130	50	49	49.727663370199
130	51	50	58.894992257631
130	52	51	69.907323038229
130	53	52	83.111737684673
130	54	53	98.128641332663
130	55	54	115.43679346973
130	56	55	134.16284246367
130	57	56	154.75664009329
130	58	57	175.96935196854
130	59	58	198.76374522255
130	60	59	223.3439651816
130	61	60	250.36564474622
130	62	61	279.20661071243
130	63	62	309.3084271165
116	40	39	2.6718384492487
116	41	40	3.3272039177883
116	42	41	4.9957008675681
116	43	42	4.8266915188659
116	44	43	7.9353775212564
116	45	44	2.0003862656208
116	46	45	0.973
116	47	46	5.4823196635171
116	48	47	7.0797244562878
116	49	48	0.973
116	50	49	4.990879699521
116	51	50	9.041378086409
116	52	51	10.301266283566
116	53	52	9.7613943563762
116	54	53	9.4502136105034
116	55	54	0.973
116	56	55	0.973
116	57	56	0.973
116	58	57	0.973
116	59	58	6.3849366463108
116	60	59	5.5964731487663
116	61	60	7.3391135174545
116	62	61	8.9728668037263
116	63	62	11.771399510602
115	40	39	1.5976530538173
115	41	40	1.5706606477266
115	42	41	2.0229630425572
115	43	42	1.5379252715968
115	44	43	2.3174965838436
115	45	44	0.084362901146834
115	46	45	-4.5
115	47	46	1.8994338621385
115	48	47	2.0896618987328
115	49	48	-1.7502960561023
115	50	49	1.3379001913592
115	51	50	2.3587958071148
115	52	51	2.2839496216737
115	53	52	1.843723193137
115	54	53	1.5673873260152
115	55	54	-1.4685265676351
115	56	55	-3.3825495777652
115	57	56	-4.5
115	58	57	-1.0312237104168
115	59	58	1.9826225037919
115	60	59	1.404036858934
115	61	60	1.7251822620863
115	62	61	1.9053928293521
115	63	62	2.2651298317825
112	39	38	1.9971751187928
112	40	39	3.5948281726101
112	41	40	5.1654888203368
112	42	41	7.188451862894
112	43	42	8.7263771344908
112	44	43	11.043873718334
112	45	44	11.128236619481
112	46	45	6.6282366194812
112	47	46	8.5276704816197
112	48	47	10.617332380353
112	49	48	8.8670363242502
112	50	49	10.204936515609
112	51	50	12.563732322724
112	52	51	14.847681944398
112	53	52	16.691405137535
112	54	53	18.25879246355
112	55	54	16.790265895915
112	56	55	13.40771631815
112	57	56	8.9077163181498
112	58	57	7.8764926077329
112	59	58	9.8591151115249
112	60	59	11.263151970459
112	61	60	12.988334232545
112	62	61	14.893727061897
112	63	62	17.15885689368
109	38	37	73.656625527261
109	39	38	72.597976069667
109	40	39	70.692453184232
109	41	40	67.954364828131
109	42	41	64.143957521335
109	43	42	59.518336896851
109	44	43	53.664272918362
109	45	44	47.765490407832
109	46	45	44.252038314425
109	47	46	39.785089044974
109	48	47	34.157835812431
109	49	48	33
109	50	49	33
109	51	50	33
109	52	51	33
109	53	52	33
109	54	53	33
109	55	54	33
109	56	55	33
109	57	56	33.014359315173
109	58	57	36.606996463088
109	59	58	41.832265736973
109	60	59	47.801665754379
109	61	60	54.685401568046
109	62	61	62.578983650193
109	63	62	71.67307035953
108	38	37	50.174761755976
108	39	38	51.868351280239
108	40	39	54.916738613613
108	41	40	59.297034398145
108	42	41	65.392787672912
108	43	42	72.792690045357
108	44	43	82.157812142391
108	45	44	91.594473346976
108	46	45	97.215168296287
108	47	46	104.36059654546
108	48	47	113.36151887928
108	49	48	121.96470725264
108	50	49	132.16964376825
108	51	50	144.73337609098
108	52	51	159.58105803538
108	53	52	176.27246317291
108	54	53	194.53125563646
108	55	54	211.32152153238
108	56	55	224.72923785052
108	57	56	233.63848096487
108	58	57	240.54707302731
108	59	58	248.90725692463
108	60	59	258.45801484473
108	61	60	269.47166682827
108	62	61	282.10102511707
108	63	62	296.65113407476
vector 187 RSUExampleScenario.node[38].veinsmobility posx ETV
vector 188 RSUExampleScenario.node[38].veinsmobility posy ETV
vector 189 RSUExampleScenario.node[37].veinsmobility speed ETV
vector 190 RSUExampleScenario.node[37].veinsmobility acceleration ETV
vector 191 RSUExampleScenario.node[37].veinsmobility co2emission ETV
vector 192 RSUExampleScenario.node[38].veinsmobility speed ETV
vector 193 RSUExampleScenario.node[38].veinsmobility acceleration ETV
vector 194 RSUExampleScenario.node[38].veinsmobility co2emission ETV
[...]
438	157	156	36.643027216406
438	158	157	33
438	159	158	33
438	160	159	33
438	161	160	33
438	162	161	33
438	163	162	33
438	164	163	33
438	165	164	33
438	166	165	33
438	167	166	37.372770911574
438	168	167	43.932185269754
438	169	168	51.413251585605
438	170	169	60.219822470991
438	171	170	70.160384200317
437	146	145	50.174761755976
437	147	146	52.106411008058
437	148	147	55.198271276739
437	149	148	60.024030329292
437	150	149	66.499715278936
437	151	150	74.342411690159
437	152	151	80.443985478811
437	153	152	87.050665785811
437	154	153	91.398606644708
437	155	154	97.086423734533
437	156	155	103.43645207024
437	157	156	109.38639746792
437	158	157	117.27573038796
437	159	158	128.11403163787
437	160	159	141.15143323425
437	161	160	156.40663538605
437	162	161	173.3500566551
437	163	162	190.62547863486
437	164	163	205.4286114308
437	165	164	220.60076210705
437	166	165	231.88835618156
437	167	166	241.77227595517
437	168	167	252.26702893703
437	169	168	264.23638149483
437	170	169	278.3264787219
437	171	170	294.23090770802
456	151	150	3.6495978173822
456	152	151	5.2397879278191
456	153	152	5.2755035633983
456	154	153	2.1746595768613
456	155	154	0.973
456	156	155	2.7911473530599
456	157	156	3.1262131377351
456	158	157	0.973
456	159	158	6.2719571203373
456	160	159	0.973
456	161	160	1.6468618999735
456	162	161	8.1738060827846
456	163	162	7.3497206938578
456	164	163	10.448825808558
456	165	164	10.92478285393
456	166	165	10.159126192628
456	167	166	15.423398868925
456	168	167	14.584275882289
456	169	168	17.152182653156
456	170	169	21.459471253577
456	171	170	19.296029056584
455	151	150	2.0582515951479
455	152	151	2.261327324016
455	153	152	1.7636620674748
455	154	153	0.2635049161608
455	155	154	-2.1033995737204
455	156	155	0.70351825453932
455	157	156	0.77924113878419
455	158	157	-1.3947090621755
455	159	158	2.133636237688
455	160	159	-1.1682609413992
455	161	160	0.056081559555605
455	162	161	2.5506367895985
455	163	162	1.8405454226071
455	164	163	2.355033641425
455	165	164	2.115018884954
455	166	165	1.6979429137427
455	167	166	2.4639943334041
455	168	167	2.0285131931305
455	169	168	2.1986462413566
455	170	169	2.5484600754222
455	171	170	1.9981046861038
452	150	149	2.5906834132271
452	151	150	4.648935008375
452	152	151	6.910262332391
452	153	152	8.6739243998658
452	154	153	8.9374293160266
452	155	154	6.8340297423062
452	156	155	7.5375479968455
452	157	156	8.3167891356297
452	158	157	6.9220800734542
452	159	158	9.0557163111422
452	160	159	7.887455369743
452	161	160	7.9435369292986
452	162	161	10.494173718897
452	163	162	12.334719141504
452	164	163	14.689752782929
452	165	164	16.804771667883
452	166	165	18.502714581626
452	167	166	20.96670891503
452	168	167	22.995222108161
452	169	168	25.193868349517
452	170	169	27.742328424939
452	171	170	29.740433111043
448	149	148	73.656625527261
448	150	149	72.28337309466
448	151	150	69.819096187393
448	152	151	66.156149758116
448	153	152	61.558332934379
448	154	153	56.820839156957
448	155	154	53.198301597881
448	156	155	49.202847707348
448	157	156	44.79433879668
448	158	157	41.178293929372
448	159	158	36.378707078426
448	160	159	33.006649670795
448	161	160	29.8
448	162	161	29.8
448	163	162	29.8
448	164	163	29.8
448	165	164	29.8
448	166	165	29.8
448	167	166	29.8
448	168	167	29.8
448	169	168	29.8
448	170	169	29.8
448	171	170	29.8
447	149	148	50.174761755976
447	150	149	52.371641863302
447	151	150	56.313903888839
447	152	151	62.173754527835
447	153	152	69.529177374652
447	154	153	77.108050414394
447	155	154	82.903256388654
447	156	155	89.295040567201
447	157	156	96.347615388041
447	158	157	102.13213295206
447	159	158	109.80918367193
447	160	159	116.7942936001
447	161	160	124.7383900283
447	162	161	135.2325637472
447	163	162	147.56728288871
447	164	163	162.25703567164
447	165	164	179.06180733952
447	166	165	197.56452192114
447	167	166	218.53123083617
447	168	167	241.52645294434
447	169	168	266.72032129385
447	170	169	294.46264971879
447	171	170	324.20308282983
vector 517 RSUExampleScenario.node[104].veinsmobility posx ETV
vector 518 RSUExampleScenario.node[104].veinsmobility posy ETV
vector 519 RSUExampleScenario.node[103].veinsmobility speed ETV
460	154	153	30.1
460	155	154	32.268948564003
460	156	155	36.328614109289
460	157	156	42.09632789637
460	158	157	50.074440915068
460	159	158	59.648358436162
460	160	159	70.813672332815
460	161	160	84.52474248861
460	162	161	99.331572773484
460	163	162	114.34144328406
460	164	163	129.01083446566
460	165	164	145.73047384967
460	166	165	164.33728143923
460	167	166	183.74676405127
460	168	167	205.45593974569
460	169	168	228.53050056182
460	170	169	253.21137418969
460	171	170	280.36796995916
460	172	171	309.08600226887
461	154	153	29.8
461	155	154	29.8
461	156	155	29.8
461	157	156	29.8
461	158	157	29.8
461	159	158	29.8
461	160	159	29.8
461	161	160	29.8
461	162	161	29.8
461	163	162	29.8
461	164	163	29.8
461	165	164	29.8
461	166	165	29.8
461	167	166	29.8
461	168	167	29.8
461	169	168	29.8
461	170	169	29.8
461	171	170	29.8
461	172	171	29.8
462	154	153	50.174761755976
462	155	154	52.064469441276
462	156	155	55.969986086205
462	157	156	61.198248799873
462	158	157	68.18757073863
462	159	158	77.315080912698
462	160	159	87.788949582101
462	161	160	95.243529328046
462	162	161	98.882142818718
462	163	162	99.228719276661
462	164	163	99.256817643351
462	165	164	99.27031665625
462	166	165	99.277255527166
462	167	166	99.280676283986
462	168	167	99.281003413535
462	169	168	99.28109245879
462	170	169	100.96799484117
462	171	170	104.08196810211
462	172	171	109.14418953373
463	154	153	73.656625527261
463	155	154	72.475384153602
463	156	155	70.034076494013
463	157	156	66.765930696763
463	158	157	62.396960663933
463	159	158	56.691426024911
463	160	159	50.144293306546
463	161	160	45.484494287019
463	162	161	43.210025684615
463	163	162	42.993383473524
463	164	163	42.975819406063
463	165	164	42.96738127954
463	166	165	42.963043846044
463	167	166	42.960905557928
463	168	167	42.960701071827
463	169	168	42.96064541034
463	170	169	41.906097114947
463	171	170	39.959283727518
463	172	171	36.794452295974
464	155	154	2.1689485640032
464	156	155	4.0596655452857
464	157	156	5.7677137870807
464	158	157	7.9781130186981
464	159	158	9.573917521094
464	160	159	11.165313896653
464	161	160	13.711070155795
464	162	161	14.806830284874
464	163	162	15.012636350176
464	164	163	14.676625342
464	165	164	16.71963938401
464	166	165	18.606807589558
464	167	166	19.409482612046
464	168	167	21.709175694412
464	169	168	23.074560816138
464	170	169	24.680873627862
464	171	170	27.156595769473
464	172	171	28.71803230971
465	155	154	2.228448580252
465	156	155	4.6056028084364
465	157	156	6.1654586643679
465	158	157	8.2421978131868
465	159	158	10.763668501144
465	160	159	12.351369445993
465	161	160	8.7908557394604
465	162	161	4.2908557394604
465	163	162	0.40870226737152
465	164	163	0.033135159392648
465	165	164	0.015918788055635
465	166	165	0.0081827031567646
465	167	166	0.0040339470166175
465	168	167	0.00038576938854633
465	169	168	0.00010500712604174
465	170	169	2.0895632938883
465	171	170	3.6731890253891
465	172	171	5.9713088869285
466	156	155	1.8907169812825
466	157	156	1.708048241795
466	158	157	2.2103992316173
466	159	158	1.5958045023959
466	160	159	1.5913963755593
466	161	160	2.5457562591415
466	162	161	1.0957601290797
466	163	162	0.20580606530151
466	164	163	-0.33601100817559
466	165	164	2.0430140420096
466	166	165	1.8871682055485
466	167	166	0.80267502248723
466	168	167	2.2996930823661
466	169	168	1.3653851217267
466	170	169	1.6063128117239
466	171	170	2.4757221416105
466	172	171	1.5614365402376
467	156	155	3.1618575873236
467	157	156	3.7801789609428
467	158	157	5.7917654034793
467	159	158	5.3349346052316
467	160	159	6.0593923758388
467	161	160	10.42165230584
467	162	161	6.0343303818314
467	163	162	2.8913925902269
467	164	163	0.973
467	165	164	10.580514733159
467	166	165	11.065206467892
467	167	166	6.4764578283644
467	168	167	15.134195210015
467	169	168	10.950921679334
467	170	169	13.243945982778
467	171	170	20.473105664453
467	172	171	15.490078335537
468	156	155	2.3771542281844
468	157	156	1.5598558559315
468	158	157	2.0767391488189
468	159	158	2.5214706879575
468	160	159	1.587700944849
468	161	160	-3.5605137065328
468	162	161	-4.5
468	163	162	-3.8821534720889
468	164	163	-0.37556710797887
468	165	164	-0.017216371337013
468	166	165	-0.0077360848988706
468	167	166	-0.0041487561401471
468	168	167	-0.0036481776280712
468	169	168	-0.00028076226250459
468	170	169	2.0894582867622
468	171	170	1.5836257315008
468	172	171	2.2981198615395
469	156	155	3.9797219598786
469	157	156	3.7468239318093
469	158	157	5.6845004404585
469	159	158	8.2852458584785
469	160	159	6.605975403732
469	161	160	0.973
469	162	161	0.973
469	163	162	0.973
469	164	163	0.973
469	165	164	1.1107018733408
469	166	165	1.1103794778481
469	167	166	1.1101905642673
469	168	167	1.1100182703427
469	169	168	1.1100050584386
469	170	169	2.2638626989077
469	171	170	2.6936594748525
469	172	171	4.7249157326288
470	157	156	30.1
470	158	157	32.097113974439
470	159	158	35.669426529203
470	160	159	40.806606590352
470	161	160	48.16534690971
470	162	161	57.957436196972
470	163	162	69.467566705379
470	164	163	82.708139766916
470	165	164	98.422154737869
470	166	165	115.95514932546
470	167	166	135.90114718278
470	168	167	158.23418928819
470	169	168	182.41802594614
470	170	169	207.01732577903
470	171	170	232.94589955805
470	172	171	260.69765026966
471	157	156	29.8
471	158	157	29.8
471	159	158	29.8
471	160	159	29.8
471	161	160	29.8
471	162	161	29.8
471	163	162	29.8
471	164	163	29.8
471	165	164	29.8
471	166	165	29.8
471	167	166	29.8
471	168	167	29.8
471	169	168	29.8
471	170	169	29.8
471	171	170	29.8
471	172	171	29.8
472	157	156	50.174761755976
472	158	157	52.028966063537
472	159	158	55.137910493297
472	160	159	60.13529549698
472	161	160	67.273894112618
472	162	161	75.619499721377
472	163	162	84.0461086105
472	164	163	90.075800394796
472	165	164	92.619719756612
472	166	165	92.810126251977
472	167	166	92.880872449917
472	168	167	92.904019018072
472	169	168	92.912288739288
472	170	169	92.919298557954
472	171	170	94.68610396898
472	172	171	97.659172899852
473	157	156	73.656625527261
473	158	157	72.497577035081
473	159	158	70.554200386191
473	160	159	67.430374424972
473	161	160	62.968092718476
473	162	161	57.751320457879
473	163	162	52.483913685441
473	164	163	48.714800895442
473	165	164	47.124616961277
473	166	165	47.005595362388
473	167	166	46.961372471892
473	168	167	46.94690373465
473	169	168	46.941734397125
473	170	169	46.93735261475
473	171	170	45.83293648365
473	172	171	43.974494537731
474	158	157	1.997113974439
474	159	158	3.5723125547636
474	160	159	5.1371800611494
474	161	160	7.3587403193582
474	162	161	9.7920892872615
474	163	162	11.510130508407
474	164	163	13.240573061537
474	165	164	15.714014970954
474	166	165	17.539887552615
474	167	166	19.9491048923
474	168	167	22.333042105404
474	169	168	24.18383665795
474	170	169	24.599299832895
474	171	170	25.928573779017
474	172	171	27.751750711608
475	158	157	2.1865810192889
475	159	158	3.6662404743722
475	160	159	5.8931948062964
475	161	160	8.4182331869379
475	162	161	9.8416030769469
475	163	162	9.9371266579358
475	164	163	7.110548472969
475	165	164	2.9999314360702
475	166	165	0.22453794709437
475	167	166	0.083427857961681
475	168	167	0.027295722689598
475	169	168	0.0097521159731958
475	170	169	0.0082663686963664
475	171	170	2.0835153714034
475	172	171	3.506008516306
476	159	158	1.5751985803246
476	160	159	1.5648675063858
476	161	160	2.2215602582088
476	162	161	2.4333489679033
476	163	162	1.7180412211455
476	164	163	1.73044255313
476	165	164	2.4734419094166
476	166	165	1.8258725816617
476	167	166	2.4092173396843
476	168	167	2.3839372131042
476	169	168	1.8507945525459
476	170	169	0.41546317494555
476	171	170	1.3292739461213
476	172	171	1.823176932591
477	159	158	2.64267120599
477	160	159	3.3077421641221
477	161	160	5.4416373955906
477	162	161	7.4115507237698
477	163	162	6.5718628090178
477	164	163	7.4849632481544
477	165	164	11.593615170415
477	166	165	10.172779881769
477	167	166	14.388625035244
477	168	167	16.047325661902
477	169	168	14.370239721007
477	170	169	6.1348361487739
477	171	170	12.277449818519
477	172	171	16.616904808197
478	159	158	1.4796594550833
478	160	159	2.2269543319242
478	161	160	2.5250383806415
478	162	161	1.4233698900091
478	163	162	0.095523580988832
478	164	163	-2.8265781849667
478	165	164	-4.1106170368988
478	166	165	-2.7753934889758
478	167	166	-0.14111008913269
478	168	167	-0.056132135272083
478	169	168	-0.017543606716402
478	170	169	-0.0014857472768294
478	171	170	2.0752490027071
478	172	171	1.4224931449026
479	159	158	2.5987855485237
479	160	159	4.5760488689448
479	161	160	6.6939894372363
479	162	161	5.0488034175215
479	163	162	1.9087787631805
479	164	163	0.973
479	165	164	0.973
479	166	165	0.973
479	167	166	0.973
479	168	167	1.1109474952464
479	169	168	1.110429210124
479	170	169	1.11039580978
479	171	170	2.2533832933879
479	172	171	2.4850438411804
480	160	159	30.1
480	161	160	31.860869025718
480	162	161	34.969008659665
480	163	162	40.298167817318
480	164	163	47.153728322289
480	165	164	56.378131665988
480	166	165	67.757949120388
480	167	166	81.566055678669
480	168	167	97.054060799
480	169	168	114.17742499765
480	170	169	133.58856623814
480	171	170	154.72056252487
480	172	171	177.20285340146
481	160	159	29.8
481	161	160	29.8
481	162	161	29.8
481	163	162	29.8
481	164	163	29.8
481	165	164	29.8
481	166	165	29.8
481	167	166	29.8
481	168	167	29.8
481	169	168	29.8
481	170	169	33
481	171	170	33
481	172	171	33
482	161	160	50.174761755976
482	162	161	51.918231627261
482	163	162	54.82301689092
482	164	163	59.589123583474
482	165	164	66.411824290779
482	166	165	75.316344444123
482	167	166	82.176687118304
482	168	167	85.549676745921
482	169	168	86.335884862934
482	170	169	86.45539504829
482	171	170	86.519339823309
482	172	171	88.203329386615
483	161	160	73.656625527261
483	162	161	72.566796258052
483	163	162	70.751037894088
483	164	163	67.771782181517
483	165	164	63.506965766652
483	166	165	57.940820431299
483	167	166	53.652474319748
483	168	167	51.544045099685
483	169	168	51.052592605023
483	170	169	50.9778877305
483	171	170	50.937916355842
483	172	171	49.885267758146
484	161	160	1.7608690257184
484	162	161	3.1081396339461
484	163	162	5.3291591576533
484	164	163	6.8555605049711
484	165	164	9.2244033436989
484	166	165	11.3798174544
484	167	166	13.808106558281
484	168	167	15.48800512033
484	169	168	17.125710554142
484	170	169	19.418794884998
484	171	170	21.13199628673
484	172	171	22.482290876587
485	162	161	1.3472706082277
485	163	162	2.2210195237072
485	164	163	1.5264013473177
485	165	164	2.3688428387279
485	166	165	2.1554141107015
485	167	166	2.4282891038805
485	168	167	1.6798985620495
485	169	168	1.6377054338111
485	170	169	2.2930843308568
485	171	170	1.7132014017319
485	172	171	1.3502945898566
486	162	161	2.2718991974702
486	163	162	4.2335761114503
486	164	163	3.9923821114744
486	165	164	6.893623482132
486	166	165	7.706400954848
486	167	166	10.100057509675
486	168	167	8.4707556275243
486	169	168	9.1594403079814
486	170	169	13.454691767339
486	171	170	11.726173268981
486	172	171	10.560525742323
487	162	161	2.0559968028916
487	163	162	3.4254846117692
487	164	163	5.6204585370375
487	165	164	8.0457087744027
487	166	165	10.50070624568
487	167	166	8.0900982788203
487	168	167	3.9776172819407
487	169	168	0.92714041212287
487	170	169	0.14093306861829
487	171	170	0.075407241138652
487	172	171	1.9858543100072
488	163	162	30.1
488	164	163	32.47133261587
488	165	164	36.275899752742
488	166	165	42.453307639854
488	167	166	50.522399795521
488	168	167	61.081722802576
488	169	168	73.525461133826
488	170	169	87.757373072696
488	171	170	104.45093294969
488	172	171	123.46961645147
489	163	162	29.8
489	164	163	29.8
489	165	164	29.8
489	166	165	29.8
489	167	166	29.8
489	168	167	29.8
489	169	168	29.8
489	170	169	29.8
489	171	170	29.8
489	172	171	29.8
490	163	162	1.3694878088776
490	164	163	2.1949739252683
490	165	164	2.4252502373653
490	166	165	2.4549974712776
490	167	166	-2.4106079668601
490	168	167	-4.1124809968795
490	169	168	-3.0504768698179
490	170	169	-0.78620734350457
490	171	170	-0.065525827479641
490	172	171	1.9104470688685
491	163	162	2.4095279147991
491	164	163	4.3706917296144
491	165	164	6.2488369083773
491	166	165	7.9363047049813
491	167	166	0.973
491	168	167	0.973
491	169	168	0.973
491	170	169	0.973
491	171	170	1.1124468745516
491	172	171	2.1208436329742
492	164	163	50.174761755976
492	165	164	51.419757039645
492	166	165	54.515778357059
492	167	166	58.78032713589
492	168	167	65.186601681066
492	169	168	72.677051733688
492	170	169	77.568481708339
492	171	170	79.851054737618
492	172	171	80.09850013997
493	164	163	73.656625527261
493	165	164	72.878388792278
493	166	165	70.943090279016
493	167	166	68.277354463509
493	168	167	64.272842759054
493	169	168	59.590621493662
493	170	169	56.533027185631
493	171	170	55.10620878321
493	172	171	54.951532613317
494	164	163	2.3713326158701
494	165	164	3.8045671368716
494	166	165	6.1774078871123
494	167	166	8.069092155667
494	168	167	10.559323007055
494	169	168	12.44373833125
494	170	169	14.23191193887
494	171	170	16.693559876992
494	172	171	19.028683501785
495	165	164	1.4332345210016
495	166	165	2.3728407502407
495	167	166	1.8916842685547
495	168	167	2.4902308513876
495	169	168	1.8844153241953
495	170	169	1.7881736076204
495	171	170	2.461647938122
495	172	171	2.3351236247923
496	165	164	2.6127533384582
496	166	165	4.9623540742115
496	167	166	5.226453177224
496	168	167	8.0652762898087
496	169	168	7.539538369235
496	170	169	8.1960822436709
496	171	170	12.248624782283
496	172	171	13.373117586345
497	165	164	1.4681677985936
497	166	165	3.6510008203331
497	167	166	5.028993502818
497	168	167	7.5546358444495
497	169	168	8.8331560034695
497	170	169	5.768246733188
497	171	170	2.6917372808424
497	172	171	0.29180140391565
498	166	165	30.1
498	167	166	32.105142172705
498	168	167	35.727984093665
498	169	168	41.477966848086
498	170	169	49.394320085552
498	171	170	59.20301067871
498	172	171	70.936677830806
499	166	165	29.8
499	167	166	29.8
499	168	167	29.8
499	169	168	29.8
499	170	169	29.8
499	171	170	29.8
499	172	171	29.8
500	166	165	2.1828330217395
500	167	166	1.3779926824849
500	168	167	2.5256423416315
500	169	168	1.27852015902
500	170	169	-3.0649092702815
500	171	170	-3.0765094523457
500	172	171	-2.3999358769267
501	166	165	3.2112756569911
501	167	166	3.0344578682763
501	168	167	6.1126201750464
501	169	168	4.3214810187874
501	170	169	0.973
501	171	170	0.973
501	172	171	0.973
502	167	166	2.0051421727054
502	168	167	3.6228419209598
502	169	168	5.7499827544205
502	170	169	7.916353237466
502	171	170	9.8086905931588
502	172	171	11.733667152096
503	168	167	50.174761755976
503	169	168	51.432749993244
503	170	169	54.373120960592
503	171	170	58.605565047469
503	172	171	64.676728313784
504	168	167	73.656625527261
504	169	168	72.870266999433
504	170	169	71.032264292688
504	171	170	68.386596866975
504	172	171	64.591560580569
505	168	167	1.6176997482544
505	169	168	2.1271408334607
505	170	169	2.1663704830455
505	171	170	1.8923373556929
505	172	171	1.9249765589368
506	168	167	2.701580067765
506	169	168	4.3526176703735
506	170	169	5.6708054147597
506	171	170	6.1436347532037
506	172	171	7.2687434825971
507	169	168	30.1
507	170	169	32.255787213845
507	171	170	36.76958512296
507	172	171	42.788480424043
508	169	168	29.8
508	170	169	29.8
508	171	170	29.8
508	172	171	29.8
509	169	168	1.4834898133297
509	170	169	3.4674492560793
509	171	170	4.9911338614766
509	172	171	7.15945395499
510	170	169	1.9839594427496
510	171	170	1.5236846053973
510	172	171	2.1683200935135
511	170	169	2.9390271790707
511	171	170	3.1950425706419
511	172	171	5.2305541262463
512	170	169	2.1557872138452
512	171	170	4.5137979091145
512	172	171	6.0188953010831
513	171	170	50.174761755976
513	172	171	51.736767627036
514	171	170	73.656625527261
514	172	171	72.680227973741
515	171	170	2.3580106952693
515	172	171	1.5050973919686
516	171	170	3.9013449911272
516	172	171	3.6037191510635
517	172	171	30.1
518	172	171	29.8
519	172	171	1.8420043442631

